/*--------------------------------*- C++ -*----------------------------------*\
| =========                 |                                                 |
| \\      /  F ield         | OpenFOAM: The Open Source CFD Toolbox           |
|  \\    /   O peration     | Version:  v2106                                 |
|   \\  /    A nd           | Website:  www.openfoam.com                      |
|    \\/     M anipulation  |                                                 |
\*---------------------------------------------------------------------------*/
FoamFile
{
    version     2.0;
    format      ascii;
    arch        "LSB;label=32;scalar=64";
    note        "written 2023-08-23T23:43:49";
    class       featureEdgeMesh;
    location    "";
    object      Strutsrefinement.eMesh;
}
// * * * * * * * * * * * * * * * * * * * * * * * * * * * * * * * * * * * * * //


// points:

1440
(
(-1.68798 -0.120646 -2.77556e-17)
(-1.68863 -0.120497 -2.77556e-17)
(-1.68798 -0.120646 -0.0762)
(-1.68733 -0.120773 -0.0762)
(-1.68733 -0.120773 -2.77556e-17)
(-1.68667 -0.120877 -0.0762)
(-1.68667 -0.120877 -2.77556e-17)
(-1.68601 -0.120958 -0.0762)
(-1.68601 -0.120958 -2.77556e-17)
(-1.68535 -0.121016 -0.0762)
(-1.68535 -0.121016 -2.77556e-17)
(-1.68468 -0.121051 -0.0762)
(-1.68468 -0.121051 -2.77556e-17)
(-1.68402 -0.121063 -0.0762)
(-1.68402 -0.121063 -2.77556e-17)
(-1.68335 -0.121051 -0.0762)
(-1.68335 -0.121051 -2.77556e-17)
(-1.68269 -0.121016 -0.0762)
(-1.68269 -0.121016 -2.77556e-17)
(-1.68203 -0.120958 -0.0762)
(-1.68203 -0.120958 -2.77556e-17)
(-1.68137 -0.120877 -0.0762)
(-1.68137 -0.120877 -2.77556e-17)
(-1.68071 -0.120773 -0.0762)
(-1.68071 -0.120773 -2.77556e-17)
(-1.68006 -0.120646 -0.0762)
(-1.68006 -0.120646 -2.77556e-17)
(-1.67941 -0.120497 -0.0762)
(-1.67941 -0.120497 -2.77556e-17)
(-1.67877 -0.120325 -0.0762)
(-1.67877 -0.120325 -2.77556e-17)
(-1.67813 -0.12013 -0.0762)
(-1.67813 -0.12013 -2.77556e-17)
(-1.67751 -0.119914 -0.0762)
(-1.67751 -0.119914 -2.77556e-17)
(-1.67688 -0.119676 -0.0762)
(-1.67688 -0.119676 -2.77556e-17)
(-1.67627 -0.119416 -0.0762)
(-1.67627 -0.119416 -2.77556e-17)
(-1.67567 -0.119135 -0.0762)
(-1.67567 -0.119135 -2.77556e-17)
(-1.67508 -0.118833 -0.0762)
(-1.67508 -0.118833 -2.77556e-17)
(-1.67449 -0.11851 -0.0762)
(-1.67449 -0.11851 -2.77556e-17)
(-1.67393 -0.118168 -0.0762)
(-1.67393 -0.118168 -2.77556e-17)
(-1.67337 -0.117806 -0.0762)
(-1.67337 -0.117806 -2.77556e-17)
(-1.67282 -0.117425 -0.0762)
(-1.67282 -0.117425 -2.77556e-17)
(-1.67229 -0.117024 -0.0762)
(-1.67229 -0.117024 -2.77556e-17)
(-1.67177 -0.116606 -0.0762)
(-1.67177 -0.116606 -2.77556e-17)
(-1.67127 -0.11617 -0.0762)
(-1.67127 -0.11617 -2.77556e-17)
(-1.67079 -0.115716 -0.0762)
(-1.67079 -0.115716 -2.77556e-17)
(-1.67032 -0.115246 -0.0762)
(-1.67032 -0.115246 -2.77556e-17)
(-1.66986 -0.11476 -0.0762)
(-1.66986 -0.11476 -2.77556e-17)
(-1.66943 -0.114258 -0.0762)
(-1.66943 -0.114258 -2.77556e-17)
(-1.66901 -0.113741 -0.0762)
(-1.66901 -0.113741 -2.77556e-17)
(-1.66861 -0.11321 -0.0762)
(-1.66861 -0.11321 -2.77556e-17)
(-1.66823 -0.112665 -0.0762)
(-1.66823 -0.112665 -2.77556e-17)
(-1.66787 -0.112108 -0.0762)
(-1.66787 -0.112108 -2.77556e-17)
(-1.66752 -0.111538 -0.0762)
(-1.66752 -0.111538 -2.77556e-17)
(-1.6672 -0.110956 -0.0762)
(-1.6672 -0.110956 -2.77556e-17)
(-1.6669 -0.110364 -0.0762)
(-1.6669 -0.110364 -2.77556e-17)
(-1.66662 -0.109761 -0.0762)
(-1.66662 -0.109761 -2.77556e-17)
(-1.66636 -0.109149 -0.0762)
(-1.66636 -0.109149 -2.77556e-17)
(-1.66612 -0.108528 -0.0762)
(-1.66612 -0.108528 -2.77556e-17)
(-1.6659 -0.1079 -0.0762)
(-1.6659 -0.1079 -2.77556e-17)
(-1.66571 -0.107264 -0.0762)
(-1.66571 -0.107264 -2.77556e-17)
(-1.66554 -0.106621 -0.0762)
(-1.66554 -0.106621 -2.77556e-17)
(-1.66539 -0.105973 -0.0762)
(-1.66539 -0.105973 -2.77556e-17)
(-1.66526 -0.105321 -0.0762)
(-1.66526 -0.105321 -2.77556e-17)
(-1.66516 -0.104664 -0.0762)
(-1.66516 -0.104664 -2.77556e-17)
(-1.66507 -0.104004 -0.0762)
(-1.66507 -0.104004 -2.77556e-17)
(-1.66502 -0.103342 -0.0762)
(-1.66502 -0.103342 -2.77556e-17)
(-1.66498 -0.102678 -0.0762)
(-1.66498 -0.102678 -2.77556e-17)
(-1.66497 -0.102013 -0.0762)
(-1.66497 -0.102013 -2.77556e-17)
(-1.66498 -0.101348 -0.0762)
(-1.68863 -0.120497 -0.0762)
(-1.68927 -0.120325 -2.77556e-17)
(-1.68927 -0.120325 -0.0762)
(-1.68991 -0.12013 -2.77556e-17)
(-1.68991 -0.12013 -0.0762)
(-1.69053 -0.119914 -2.77556e-17)
(-1.69053 -0.119914 -0.0762)
(-1.69116 -0.119676 -2.77556e-17)
(-1.69116 -0.119676 -0.0762)
(-1.69177 -0.119416 -2.77556e-17)
(-1.69177 -0.119416 -0.0762)
(-1.69237 -0.119135 -2.77556e-17)
(-1.69237 -0.119135 -0.0762)
(-1.69296 -0.118833 -2.77556e-17)
(-1.69296 -0.118833 -0.0762)
(-1.69354 -0.11851 -2.77556e-17)
(-1.69354 -0.11851 -0.0762)
(-1.69412 -0.118168 -2.77556e-17)
(-1.69412 -0.118168 -0.0762)
(-1.69467 -0.117806 -2.77556e-17)
(-1.69467 -0.117806 -0.0762)
(-1.69522 -0.117425 -2.77556e-17)
(-1.69522 -0.117425 -0.0762)
(-1.69575 -0.117024 -2.77556e-17)
(-1.69575 -0.117024 -0.0762)
(-1.69626 -0.116606 -2.77556e-17)
(-1.69626 -0.116606 -0.0762)
(-1.69677 -0.11617 -2.77556e-17)
(-1.69677 -0.11617 -0.0762)
(-1.69725 -0.115716 -2.77556e-17)
(-1.69725 -0.115716 -0.0762)
(-1.69772 -0.115246 -2.77556e-17)
(-1.69772 -0.115246 -0.0762)
(-1.69818 -0.11476 -2.77556e-17)
(-1.69818 -0.11476 -0.0762)
(-1.69861 -0.114258 -2.77556e-17)
(-1.69861 -0.114258 -0.0762)
(-1.69903 -0.113741 -2.77556e-17)
(-1.69903 -0.113741 -0.0762)
(-1.69943 -0.11321 -2.77556e-17)
(-1.69943 -0.11321 -0.0762)
(-1.69981 -0.112665 -2.77556e-17)
(-1.69981 -0.112665 -0.0762)
(-1.70018 -0.112108 -2.77556e-17)
(-1.70018 -0.112108 -0.0762)
(-1.70052 -0.111538 -2.77556e-17)
(-1.70052 -0.111538 -0.0762)
(-1.70084 -0.110956 -2.77556e-17)
(-1.70084 -0.110956 -0.0762)
(-1.70114 -0.110364 -2.77556e-17)
(-1.70114 -0.110364 -0.0762)
(-1.70142 -0.109761 -2.77556e-17)
(-1.70142 -0.109761 -0.0762)
(-1.70168 -0.109149 -2.77556e-17)
(-1.70168 -0.109149 -0.0762)
(-1.70192 -0.108528 -2.77556e-17)
(-1.70192 -0.108528 -0.0762)
(-1.70214 -0.1079 -2.77556e-17)
(-1.70214 -0.1079 -0.0762)
(-1.70233 -0.107264 -2.77556e-17)
(-1.70233 -0.107264 -0.0762)
(-1.7025 -0.106621 -2.77556e-17)
(-1.7025 -0.106621 -0.0762)
(-1.70265 -0.105973 -2.77556e-17)
(-1.70265 -0.105973 -0.0762)
(-1.70278 -0.105321 -2.77556e-17)
(-1.70278 -0.105321 -0.0762)
(-1.70289 -0.104664 -2.77556e-17)
(-1.70289 -0.104664 -0.0762)
(-1.70297 -0.104004 -2.77556e-17)
(-1.70297 -0.104004 -0.0762)
(-1.70302 -0.103342 -2.77556e-17)
(-1.70302 -0.103342 -0.0762)
(-1.70306 -0.102678 -2.77556e-17)
(-1.70306 -0.102678 -0.0762)
(-1.70307 -0.102013 -2.77556e-17)
(-1.70307 -0.102013 -0.0762)
(-1.70306 -0.101348 -2.77556e-17)
(-1.70306 -0.101348 -0.0762)
(-1.70302 -0.100684 -2.77556e-17)
(-1.70302 -0.100684 -0.0762)
(-1.70297 -0.100021 -2.77556e-17)
(-1.70297 -0.100021 -0.0762)
(-1.70289 -0.0993615 -2.77556e-17)
(-1.70289 -0.0993615 -0.0762)
(-1.70278 -0.0987048 -2.77556e-17)
(-1.70278 -0.0987048 -0.0762)
(-1.70265 -0.098052 -2.77556e-17)
(-1.70265 -0.098052 -0.0762)
(-1.7025 -0.0974041 -2.77556e-17)
(-1.7025 -0.0974041 -0.0762)
(-1.70233 -0.0967619 -2.77556e-17)
(-1.70233 -0.0967619 -0.0762)
(-1.70214 -0.096126 -2.77556e-17)
(-1.70214 -0.096126 -0.0762)
(-1.70192 -0.0954973 -2.77556e-17)
(-1.70192 -0.0954973 -0.0762)
(-1.70168 -0.0948765 -2.77556e-17)
(-1.70168 -0.0948765 -0.0762)
(-1.70142 -0.0942644 -2.77556e-17)
(-1.70142 -0.0942644 -0.0762)
(-1.70114 -0.0936618 -2.77556e-17)
(-1.70114 -0.0936618 -0.0762)
(-1.70084 -0.0930693 -2.77556e-17)
(-1.70084 -0.0930693 -0.0762)
(-1.70052 -0.0924878 -2.77556e-17)
(-1.70052 -0.0924878 -0.0762)
(-1.70018 -0.0919178 -2.77556e-17)
(-1.70018 -0.0919178 -0.0762)
(-1.69981 -0.0913601 -2.77556e-17)
(-1.69981 -0.0913601 -0.0762)
(-1.69943 -0.0908154 -2.77556e-17)
(-1.69943 -0.0908154 -0.0762)
(-1.69903 -0.0902844 -2.77556e-17)
(-1.69903 -0.0902844 -0.0762)
(-1.69861 -0.0897676 -2.77556e-17)
(-1.69861 -0.0897676 -0.0762)
(-1.69818 -0.0892658 -2.77556e-17)
(-1.69818 -0.0892658 -0.0762)
(-1.69772 -0.0887795 -2.77556e-17)
(-1.69772 -0.0887795 -0.0762)
(-1.69725 -0.0883093 -2.77556e-17)
(-1.69725 -0.0883093 -0.0762)
(-1.69677 -0.0878558 -2.77556e-17)
(-1.69677 -0.0878558 -0.0762)
(-1.69626 -0.0874196 -2.77556e-17)
(-1.69626 -0.0874196 -0.0762)
(-1.69575 -0.0870011 -2.77556e-17)
(-1.69575 -0.0870011 -0.0762)
(-1.69522 -0.086601 -2.77556e-17)
(-1.69522 -0.086601 -0.0762)
(-1.69467 -0.0862196 -2.77556e-17)
(-1.69467 -0.0862196 -0.0762)
(-1.69412 -0.0858574 -2.77556e-17)
(-1.69412 -0.0858574 -0.0762)
(-1.69354 -0.085515 -2.77556e-17)
(-1.69354 -0.085515 -0.0762)
(-1.69296 -0.0851926 -2.77556e-17)
(-1.69296 -0.0851926 -0.0762)
(-1.69237 -0.0848907 -2.77556e-17)
(-1.69237 -0.0848907 -0.0762)
(-1.69177 -0.0846097 -2.77556e-17)
(-1.69177 -0.0846097 -0.0762)
(-1.69116 -0.0843499 -2.77556e-17)
(-1.69116 -0.0843499 -0.0762)
(-1.69053 -0.0841116 -2.77556e-17)
(-1.69053 -0.0841116 -0.0762)
(-1.68991 -0.0838951 -2.77556e-17)
(-1.68991 -0.0838951 -0.0762)
(-1.68927 -0.0837007 -2.77556e-17)
(-1.68927 -0.0837007 -0.0762)
(-1.68863 -0.0835286 -2.77556e-17)
(-1.68863 -0.0835286 -0.0762)
(-1.68798 -0.083379 -2.77556e-17)
(-1.68798 -0.083379 -0.0762)
(-1.68733 -0.0832522 -2.77556e-17)
(-1.68733 -0.0832522 -0.0762)
(-1.68667 -0.0831481 -2.77556e-17)
(-1.68667 -0.0831481 -0.0762)
(-1.68601 -0.0830671 -2.77556e-17)
(-1.68601 -0.0830671 -0.0762)
(-1.68535 -0.0830092 -2.77556e-17)
(-1.68535 -0.0830092 -0.0762)
(-1.68468 -0.0829744 -2.77556e-17)
(-1.68468 -0.0829744 -0.0762)
(-1.68402 -0.0829628 -2.77556e-17)
(-1.68402 -0.0829628 -0.0762)
(-1.68335 -0.0829744 -2.77556e-17)
(-1.68335 -0.0829744 -0.0762)
(-1.68269 -0.0830092 -2.77556e-17)
(-1.68269 -0.0830092 -0.0762)
(-1.68203 -0.0830671 -2.77556e-17)
(-1.68203 -0.0830671 -0.0762)
(-1.68137 -0.0831481 -2.77556e-17)
(-1.68137 -0.0831481 -0.0762)
(-1.68071 -0.0832522 -2.77556e-17)
(-1.68071 -0.0832522 -0.0762)
(-1.68006 -0.083379 -2.77556e-17)
(-1.68006 -0.083379 -0.0762)
(-1.67941 -0.0835286 -2.77556e-17)
(-1.67941 -0.0835286 -0.0762)
(-1.67877 -0.0837007 -2.77556e-17)
(-1.67877 -0.0837007 -0.0762)
(-1.67813 -0.0838951 -2.77556e-17)
(-1.67813 -0.0838951 -0.0762)
(-1.67751 -0.0841116 -2.77556e-17)
(-1.67751 -0.0841116 -0.0762)
(-1.67688 -0.0843499 -2.77556e-17)
(-1.67688 -0.0843499 -0.0762)
(-1.67627 -0.0846097 -2.77556e-17)
(-1.67627 -0.0846097 -0.0762)
(-1.67567 -0.0848907 -2.77556e-17)
(-1.67567 -0.0848907 -0.0762)
(-1.67508 -0.0851926 -2.77556e-17)
(-1.67508 -0.0851926 -0.0762)
(-1.67449 -0.085515 -2.77556e-17)
(-1.67449 -0.085515 -0.0762)
(-1.67393 -0.0858574 -2.77556e-17)
(-1.67393 -0.0858574 -0.0762)
(-1.67337 -0.0862196 -2.77556e-17)
(-1.67337 -0.0862196 -0.0762)
(-1.67282 -0.086601 -2.77556e-17)
(-1.67282 -0.086601 -0.0762)
(-1.67229 -0.0870011 -2.77556e-17)
(-1.67229 -0.0870011 -0.0762)
(-1.67177 -0.0874196 -2.77556e-17)
(-1.67177 -0.0874196 -0.0762)
(-1.67127 -0.0878558 -2.77556e-17)
(-1.67127 -0.0878558 -0.0762)
(-1.67079 -0.0883093 -2.77556e-17)
(-1.67079 -0.0883093 -0.0762)
(-1.67032 -0.0887795 -2.77556e-17)
(-1.67032 -0.0887795 -0.0762)
(-1.66986 -0.0892658 -2.77556e-17)
(-1.66986 -0.0892658 -0.0762)
(-1.66943 -0.0897676 -2.77556e-17)
(-1.66943 -0.0897676 -0.0762)
(-1.66901 -0.0902844 -2.77556e-17)
(-1.66901 -0.0902844 -0.0762)
(-1.66861 -0.0908154 -2.77556e-17)
(-1.66861 -0.0908154 -0.0762)
(-1.66823 -0.0913601 -2.77556e-17)
(-1.66823 -0.0913601 -0.0762)
(-1.66787 -0.0919178 -2.77556e-17)
(-1.66787 -0.0919178 -0.0762)
(-1.66752 -0.0924878 -2.77556e-17)
(-1.66752 -0.0924878 -0.0762)
(-1.6672 -0.0930693 -2.77556e-17)
(-1.6672 -0.0930693 -0.0762)
(-1.6669 -0.0936618 -2.77556e-17)
(-1.6669 -0.0936618 -0.0762)
(-1.66662 -0.0942644 -2.77556e-17)
(-1.66662 -0.0942644 -0.0762)
(-1.66636 -0.0948765 -2.77556e-17)
(-1.66636 -0.0948765 -0.0762)
(-1.66612 -0.0954973 -2.77556e-17)
(-1.66612 -0.0954973 -0.0762)
(-1.6659 -0.096126 -2.77556e-17)
(-1.6659 -0.096126 -0.0762)
(-1.66571 -0.0967619 -2.77556e-17)
(-1.66571 -0.0967619 -0.0762)
(-1.66554 -0.0974041 -2.77556e-17)
(-1.66554 -0.0974041 -0.0762)
(-1.66539 -0.098052 -2.77556e-17)
(-1.66539 -0.098052 -0.0762)
(-1.66526 -0.0987048 -2.77556e-17)
(-1.66526 -0.0987048 -0.0762)
(-1.66516 -0.0993615 -2.77556e-17)
(-1.66516 -0.0993615 -0.0762)
(-1.66507 -0.100021 -2.77556e-17)
(-1.66507 -0.100021 -0.0762)
(-1.66502 -0.100684 -2.77556e-17)
(-1.66502 -0.100684 -0.0762)
(-1.66498 -0.101348 -2.77556e-17)
(-0.188555 0.083379 -2.77556e-17)
(-0.189203 0.0835286 -2.77556e-17)
(-0.188555 0.083379 -0.0762)
(-0.187902 0.0832522 -0.0762)
(-0.187902 0.0832522 -2.77556e-17)
(-0.187246 0.0831481 -0.0762)
(-0.187246 0.0831481 -2.77556e-17)
(-0.186586 0.0830671 -0.0762)
(-0.186586 0.0830671 -2.77556e-17)
(-0.185923 0.0830092 -0.0762)
(-0.185923 0.0830092 -2.77556e-17)
(-0.185259 0.0829744 -0.0762)
(-0.185259 0.0829744 -2.77556e-17)
(-0.184594 0.0829628 -0.0762)
(-0.184594 0.0829628 -2.77556e-17)
(-0.18393 0.0829744 -0.0762)
(-0.18393 0.0829744 -2.77556e-17)
(-0.183266 0.0830092 -0.0762)
(-0.183266 0.0830092 -2.77556e-17)
(-0.182603 0.0830671 -0.0762)
(-0.182603 0.0830671 -2.77556e-17)
(-0.181943 0.0831481 -0.0762)
(-0.181943 0.0831481 -2.77556e-17)
(-0.181286 0.0832522 -0.0762)
(-0.181286 0.0832522 -2.77556e-17)
(-0.180634 0.083379 -0.0762)
(-0.180634 0.083379 -2.77556e-17)
(-0.179986 0.0835286 -0.0762)
(-0.179986 0.0835286 -2.77556e-17)
(-0.179344 0.0837007 -0.0762)
(-0.179344 0.0837007 -2.77556e-17)
(-0.178708 0.0838951 -0.0762)
(-0.178708 0.0838951 -2.77556e-17)
(-0.178079 0.0841116 -0.0762)
(-0.178079 0.0841116 -2.77556e-17)
(-0.177458 0.0843499 -0.0762)
(-0.177458 0.0843499 -2.77556e-17)
(-0.176846 0.0846097 -0.0762)
(-0.176846 0.0846097 -2.77556e-17)
(-0.176243 0.0848907 -0.0762)
(-0.176243 0.0848907 -2.77556e-17)
(-0.175651 0.0851926 -0.0762)
(-0.175651 0.0851926 -2.77556e-17)
(-0.175069 0.085515 -0.0762)
(-0.175069 0.085515 -2.77556e-17)
(-0.174499 0.0858574 -0.0762)
(-0.174499 0.0858574 -2.77556e-17)
(-0.173942 0.0862196 -0.0762)
(-0.173942 0.0862196 -2.77556e-17)
(-0.173397 0.086601 -0.0762)
(-0.173397 0.086601 -2.77556e-17)
(-0.172866 0.0870011 -0.0762)
(-0.172866 0.0870011 -2.77556e-17)
(-0.172349 0.0874196 -0.0762)
(-0.172349 0.0874196 -2.77556e-17)
(-0.171848 0.0878558 -0.0762)
(-0.171848 0.0878558 -2.77556e-17)
(-0.171361 0.0883093 -0.0762)
(-0.171361 0.0883093 -2.77556e-17)
(-0.170891 0.0887795 -0.0762)
(-0.170891 0.0887795 -2.77556e-17)
(-0.170438 0.0892658 -0.0762)
(-0.170438 0.0892658 -2.77556e-17)
(-0.170001 0.0897676 -0.0762)
(-0.170001 0.0897676 -2.77556e-17)
(-0.169583 0.0902844 -0.0762)
(-0.169583 0.0902844 -2.77556e-17)
(-0.169183 0.0908154 -0.0762)
(-0.169183 0.0908154 -2.77556e-17)
(-0.168801 0.0913601 -0.0762)
(-0.168801 0.0913601 -2.77556e-17)
(-0.168439 0.0919178 -0.0762)
(-0.168439 0.0919178 -2.77556e-17)
(-0.168097 0.0924878 -0.0762)
(-0.168097 0.0924878 -2.77556e-17)
(-0.167774 0.0930693 -0.0762)
(-0.167774 0.0930693 -2.77556e-17)
(-0.167472 0.0936618 -0.0762)
(-0.167472 0.0936618 -2.77556e-17)
(-0.167192 0.0942644 -0.0762)
(-0.167192 0.0942644 -2.77556e-17)
(-0.166932 0.0948765 -0.0762)
(-0.166932 0.0948765 -2.77556e-17)
(-0.166693 0.0954973 -0.0762)
(-0.166693 0.0954973 -2.77556e-17)
(-0.166477 0.096126 -0.0762)
(-0.166477 0.096126 -2.77556e-17)
(-0.166283 0.0967619 -0.0762)
(-0.166283 0.0967619 -2.77556e-17)
(-0.16611 0.0974041 -0.0762)
(-0.16611 0.0974041 -2.77556e-17)
(-0.165961 0.098052 -0.0762)
(-0.165961 0.098052 -2.77556e-17)
(-0.165834 0.0987048 -0.0762)
(-0.165834 0.0987048 -2.77556e-17)
(-0.16573 0.0993615 -0.0762)
(-0.16573 0.0993615 -2.77556e-17)
(-0.165649 0.100021 -0.0762)
(-0.165649 0.100021 -2.77556e-17)
(-0.165591 0.100684 -0.0762)
(-0.165591 0.100684 -2.77556e-17)
(-0.165556 0.101348 -0.0762)
(-0.165556 0.101348 -2.77556e-17)
(-0.165544 0.102013 -0.0762)
(-0.165544 0.102013 -2.77556e-17)
(-0.165556 0.102678 -0.0762)
(-0.189203 0.0835286 -0.0762)
(-0.189845 0.0837007 -2.77556e-17)
(-0.189845 0.0837007 -0.0762)
(-0.190481 0.0838951 -2.77556e-17)
(-0.190481 0.0838951 -0.0762)
(-0.19111 0.0841116 -2.77556e-17)
(-0.19111 0.0841116 -0.0762)
(-0.191731 0.0843499 -2.77556e-17)
(-0.191731 0.0843499 -0.0762)
(-0.192343 0.0846097 -2.77556e-17)
(-0.192343 0.0846097 -0.0762)
(-0.192945 0.0848907 -2.77556e-17)
(-0.192945 0.0848907 -0.0762)
(-0.193538 0.0851926 -2.77556e-17)
(-0.193538 0.0851926 -0.0762)
(-0.194119 0.085515 -2.77556e-17)
(-0.194119 0.085515 -0.0762)
(-0.194689 0.0858574 -2.77556e-17)
(-0.194689 0.0858574 -0.0762)
(-0.195247 0.0862196 -2.77556e-17)
(-0.195247 0.0862196 -0.0762)
(-0.195792 0.086601 -2.77556e-17)
(-0.195792 0.086601 -0.0762)
(-0.196323 0.0870011 -2.77556e-17)
(-0.196323 0.0870011 -0.0762)
(-0.19684 0.0874196 -2.77556e-17)
(-0.19684 0.0874196 -0.0762)
(-0.197341 0.0878558 -2.77556e-17)
(-0.197341 0.0878558 -0.0762)
(-0.197828 0.0883093 -2.77556e-17)
(-0.197828 0.0883093 -0.0762)
(-0.198298 0.0887795 -2.77556e-17)
(-0.198298 0.0887795 -0.0762)
(-0.198751 0.0892658 -2.77556e-17)
(-0.198751 0.0892658 -0.0762)
(-0.199188 0.0897676 -2.77556e-17)
(-0.199188 0.0897676 -0.0762)
(-0.199606 0.0902844 -2.77556e-17)
(-0.199606 0.0902844 -0.0762)
(-0.200006 0.0908154 -2.77556e-17)
(-0.200006 0.0908154 -0.0762)
(-0.200388 0.0913601 -2.77556e-17)
(-0.200388 0.0913601 -0.0762)
(-0.20075 0.0919178 -2.77556e-17)
(-0.20075 0.0919178 -0.0762)
(-0.201092 0.0924878 -2.77556e-17)
(-0.201092 0.0924878 -0.0762)
(-0.201415 0.0930693 -2.77556e-17)
(-0.201415 0.0930693 -0.0762)
(-0.201716 0.0936618 -2.77556e-17)
(-0.201716 0.0936618 -0.0762)
(-0.201998 0.0942644 -2.77556e-17)
(-0.201998 0.0942644 -0.0762)
(-0.202257 0.0948765 -2.77556e-17)
(-0.202257 0.0948765 -0.0762)
(-0.202496 0.0954973 -2.77556e-17)
(-0.202496 0.0954973 -0.0762)
(-0.202712 0.096126 -2.77556e-17)
(-0.202712 0.096126 -0.0762)
(-0.202907 0.0967619 -2.77556e-17)
(-0.202907 0.0967619 -0.0762)
(-0.203079 0.0974041 -2.77556e-17)
(-0.203079 0.0974041 -0.0762)
(-0.203228 0.098052 -2.77556e-17)
(-0.203228 0.098052 -0.0762)
(-0.203355 0.0987048 -2.77556e-17)
(-0.203355 0.0987048 -0.0762)
(-0.203459 0.0993615 -2.77556e-17)
(-0.203459 0.0993615 -0.0762)
(-0.20354 0.100021 -2.77556e-17)
(-0.20354 0.100021 -0.0762)
(-0.203598 0.100684 -2.77556e-17)
(-0.203598 0.100684 -0.0762)
(-0.203633 0.101348 -2.77556e-17)
(-0.203633 0.101348 -0.0762)
(-0.203644 0.102013 -2.77556e-17)
(-0.203644 0.102013 -0.0762)
(-0.203633 0.102678 -2.77556e-17)
(-0.203633 0.102678 -0.0762)
(-0.203598 0.103342 -2.77556e-17)
(-0.203598 0.103342 -0.0762)
(-0.20354 0.104004 -2.77556e-17)
(-0.20354 0.104004 -0.0762)
(-0.203459 0.104664 -2.77556e-17)
(-0.203459 0.104664 -0.0762)
(-0.203355 0.105321 -2.77556e-17)
(-0.203355 0.105321 -0.0762)
(-0.203228 0.105973 -2.77556e-17)
(-0.203228 0.105973 -0.0762)
(-0.203079 0.106621 -2.77556e-17)
(-0.203079 0.106621 -0.0762)
(-0.202907 0.107264 -2.77556e-17)
(-0.202907 0.107264 -0.0762)
(-0.202712 0.1079 -2.77556e-17)
(-0.202712 0.1079 -0.0762)
(-0.202496 0.108528 -2.77556e-17)
(-0.202496 0.108528 -0.0762)
(-0.202257 0.109149 -2.77556e-17)
(-0.202257 0.109149 -0.0762)
(-0.201998 0.109761 -2.77556e-17)
(-0.201998 0.109761 -0.0762)
(-0.201716 0.110364 -2.77556e-17)
(-0.201716 0.110364 -0.0762)
(-0.201415 0.110956 -2.77556e-17)
(-0.201415 0.110956 -0.0762)
(-0.201092 0.111538 -2.77556e-17)
(-0.201092 0.111538 -0.0762)
(-0.20075 0.112108 -2.77556e-17)
(-0.20075 0.112108 -0.0762)
(-0.200388 0.112665 -2.77556e-17)
(-0.200388 0.112665 -0.0762)
(-0.200006 0.11321 -2.77556e-17)
(-0.200006 0.11321 -0.0762)
(-0.199606 0.113741 -2.77556e-17)
(-0.199606 0.113741 -0.0762)
(-0.199188 0.114258 -2.77556e-17)
(-0.199188 0.114258 -0.0762)
(-0.198751 0.11476 -2.77556e-17)
(-0.198751 0.11476 -0.0762)
(-0.198298 0.115246 -2.77556e-17)
(-0.198298 0.115246 -0.0762)
(-0.197828 0.115716 -2.77556e-17)
(-0.197828 0.115716 -0.0762)
(-0.197341 0.11617 -2.77556e-17)
(-0.197341 0.11617 -0.0762)
(-0.19684 0.116606 -2.77556e-17)
(-0.19684 0.116606 -0.0762)
(-0.196323 0.117024 -2.77556e-17)
(-0.196323 0.117024 -0.0762)
(-0.195792 0.117425 -2.77556e-17)
(-0.195792 0.117425 -0.0762)
(-0.195247 0.117806 -2.77556e-17)
(-0.195247 0.117806 -0.0762)
(-0.194689 0.118168 -2.77556e-17)
(-0.194689 0.118168 -0.0762)
(-0.194119 0.11851 -2.77556e-17)
(-0.194119 0.11851 -0.0762)
(-0.193538 0.118833 -2.77556e-17)
(-0.193538 0.118833 -0.0762)
(-0.192945 0.119135 -2.77556e-17)
(-0.192945 0.119135 -0.0762)
(-0.192343 0.119416 -2.77556e-17)
(-0.192343 0.119416 -0.0762)
(-0.191731 0.119676 -2.77556e-17)
(-0.191731 0.119676 -0.0762)
(-0.19111 0.119914 -2.77556e-17)
(-0.19111 0.119914 -0.0762)
(-0.190481 0.12013 -2.77556e-17)
(-0.190481 0.12013 -0.0762)
(-0.189845 0.120325 -2.77556e-17)
(-0.189845 0.120325 -0.0762)
(-0.189203 0.120497 -2.77556e-17)
(-0.189203 0.120497 -0.0762)
(-0.188555 0.120646 -2.77556e-17)
(-0.188555 0.120646 -0.0762)
(-0.187902 0.120773 -2.77556e-17)
(-0.187902 0.120773 -0.0762)
(-0.187246 0.120877 -2.77556e-17)
(-0.187246 0.120877 -0.0762)
(-0.186586 0.120958 -2.77556e-17)
(-0.186586 0.120958 -0.0762)
(-0.185923 0.121016 -2.77556e-17)
(-0.185923 0.121016 -0.0762)
(-0.185259 0.121051 -2.77556e-17)
(-0.185259 0.121051 -0.0762)
(-0.184594 0.121063 -2.77556e-17)
(-0.184594 0.121063 -0.0762)
(-0.18393 0.121051 -2.77556e-17)
(-0.18393 0.121051 -0.0762)
(-0.183266 0.121016 -2.77556e-17)
(-0.183266 0.121016 -0.0762)
(-0.182603 0.120958 -2.77556e-17)
(-0.182603 0.120958 -0.0762)
(-0.181943 0.120877 -2.77556e-17)
(-0.181943 0.120877 -0.0762)
(-0.181286 0.120773 -2.77556e-17)
(-0.181286 0.120773 -0.0762)
(-0.180634 0.120646 -2.77556e-17)
(-0.180634 0.120646 -0.0762)
(-0.179986 0.120497 -2.77556e-17)
(-0.179986 0.120497 -0.0762)
(-0.179344 0.120325 -2.77556e-17)
(-0.179344 0.120325 -0.0762)
(-0.178708 0.12013 -2.77556e-17)
(-0.178708 0.12013 -0.0762)
(-0.178079 0.119914 -2.77556e-17)
(-0.178079 0.119914 -0.0762)
(-0.177458 0.119676 -2.77556e-17)
(-0.177458 0.119676 -0.0762)
(-0.176846 0.119416 -2.77556e-17)
(-0.176846 0.119416 -0.0762)
(-0.176243 0.119135 -2.77556e-17)
(-0.176243 0.119135 -0.0762)
(-0.175651 0.118833 -2.77556e-17)
(-0.175651 0.118833 -0.0762)
(-0.175069 0.11851 -2.77556e-17)
(-0.175069 0.11851 -0.0762)
(-0.174499 0.118168 -2.77556e-17)
(-0.174499 0.118168 -0.0762)
(-0.173942 0.117806 -2.77556e-17)
(-0.173942 0.117806 -0.0762)
(-0.173397 0.117425 -2.77556e-17)
(-0.173397 0.117425 -0.0762)
(-0.172866 0.117024 -2.77556e-17)
(-0.172866 0.117024 -0.0762)
(-0.172349 0.116606 -2.77556e-17)
(-0.172349 0.116606 -0.0762)
(-0.171848 0.11617 -2.77556e-17)
(-0.171848 0.11617 -0.0762)
(-0.171361 0.115716 -2.77556e-17)
(-0.171361 0.115716 -0.0762)
(-0.170891 0.115246 -2.77556e-17)
(-0.170891 0.115246 -0.0762)
(-0.170438 0.11476 -2.77556e-17)
(-0.170438 0.11476 -0.0762)
(-0.170001 0.114258 -2.77556e-17)
(-0.170001 0.114258 -0.0762)
(-0.169583 0.113741 -2.77556e-17)
(-0.169583 0.113741 -0.0762)
(-0.169183 0.11321 -2.77556e-17)
(-0.169183 0.11321 -0.0762)
(-0.168801 0.112665 -2.77556e-17)
(-0.168801 0.112665 -0.0762)
(-0.168439 0.112108 -2.77556e-17)
(-0.168439 0.112108 -0.0762)
(-0.168097 0.111538 -2.77556e-17)
(-0.168097 0.111538 -0.0762)
(-0.167774 0.110956 -2.77556e-17)
(-0.167774 0.110956 -0.0762)
(-0.167472 0.110364 -2.77556e-17)
(-0.167472 0.110364 -0.0762)
(-0.167192 0.109761 -2.77556e-17)
(-0.167192 0.109761 -0.0762)
(-0.166932 0.109149 -2.77556e-17)
(-0.166932 0.109149 -0.0762)
(-0.166693 0.108528 -2.77556e-17)
(-0.166693 0.108528 -0.0762)
(-0.166477 0.1079 -2.77556e-17)
(-0.166477 0.1079 -0.0762)
(-0.166283 0.107264 -2.77556e-17)
(-0.166283 0.107264 -0.0762)
(-0.16611 0.106621 -2.77556e-17)
(-0.16611 0.106621 -0.0762)
(-0.165961 0.105973 -2.77556e-17)
(-0.165961 0.105973 -0.0762)
(-0.165834 0.105321 -2.77556e-17)
(-0.165834 0.105321 -0.0762)
(-0.16573 0.104664 -2.77556e-17)
(-0.16573 0.104664 -0.0762)
(-0.165649 0.104004 -2.77556e-17)
(-0.165649 0.104004 -0.0762)
(-0.165591 0.103342 -2.77556e-17)
(-0.165591 0.103342 -0.0762)
(-0.165556 0.102678 -2.77556e-17)
(-1.68798 0.083379 -2.77556e-17)
(-1.68863 0.0835286 -2.77556e-17)
(-1.68798 0.083379 -0.0762)
(-1.68733 0.0832522 -0.0762)
(-1.68733 0.0832522 -2.77556e-17)
(-1.68667 0.0831481 -0.0762)
(-1.68667 0.0831481 -2.77556e-17)
(-1.68601 0.0830671 -0.0762)
(-1.68601 0.0830671 -2.77556e-17)
(-1.68535 0.0830092 -0.0762)
(-1.68535 0.0830092 -2.77556e-17)
(-1.68468 0.0829744 -0.0762)
(-1.68468 0.0829744 -2.77556e-17)
(-1.68402 0.0829628 -0.0762)
(-1.68402 0.0829628 -2.77556e-17)
(-1.68335 0.0829744 -0.0762)
(-1.68335 0.0829744 -2.77556e-17)
(-1.68269 0.0830092 -0.0762)
(-1.68269 0.0830092 -2.77556e-17)
(-1.68203 0.0830671 -0.0762)
(-1.68203 0.0830671 -2.77556e-17)
(-1.68137 0.0831481 -0.0762)
(-1.68137 0.0831481 -2.77556e-17)
(-1.68071 0.0832522 -0.0762)
(-1.68071 0.0832522 -2.77556e-17)
(-1.68006 0.083379 -0.0762)
(-1.68006 0.083379 -2.77556e-17)
(-1.67941 0.0835286 -0.0762)
(-1.67941 0.0835286 -2.77556e-17)
(-1.67877 0.0837007 -0.0762)
(-1.67877 0.0837007 -2.77556e-17)
(-1.67813 0.0838951 -0.0762)
(-1.67813 0.0838951 -2.77556e-17)
(-1.67751 0.0841116 -0.0762)
(-1.67751 0.0841116 -2.77556e-17)
(-1.67688 0.0843499 -0.0762)
(-1.67688 0.0843499 -2.77556e-17)
(-1.67627 0.0846097 -0.0762)
(-1.67627 0.0846097 -2.77556e-17)
(-1.67567 0.0848907 -0.0762)
(-1.67567 0.0848907 -2.77556e-17)
(-1.67508 0.0851926 -0.0762)
(-1.67508 0.0851926 -2.77556e-17)
(-1.67449 0.085515 -0.0762)
(-1.67449 0.085515 -2.77556e-17)
(-1.67393 0.0858574 -0.0762)
(-1.67393 0.0858574 -2.77556e-17)
(-1.67337 0.0862196 -0.0762)
(-1.67337 0.0862196 -2.77556e-17)
(-1.67282 0.086601 -0.0762)
(-1.67282 0.086601 -2.77556e-17)
(-1.67229 0.0870011 -0.0762)
(-1.67229 0.0870011 -2.77556e-17)
(-1.67177 0.0874196 -0.0762)
(-1.67177 0.0874196 -2.77556e-17)
(-1.67127 0.0878558 -0.0762)
(-1.67127 0.0878558 -2.77556e-17)
(-1.67079 0.0883093 -0.0762)
(-1.67079 0.0883093 -2.77556e-17)
(-1.67032 0.0887795 -0.0762)
(-1.67032 0.0887795 -2.77556e-17)
(-1.66986 0.0892658 -0.0762)
(-1.66986 0.0892658 -2.77556e-17)
(-1.66943 0.0897676 -0.0762)
(-1.66943 0.0897676 -2.77556e-17)
(-1.66901 0.0902844 -0.0762)
(-1.66901 0.0902844 -2.77556e-17)
(-1.66861 0.0908154 -0.0762)
(-1.66861 0.0908154 -2.77556e-17)
(-1.66823 0.0913601 -0.0762)
(-1.66823 0.0913601 -2.77556e-17)
(-1.66787 0.0919178 -0.0762)
(-1.66787 0.0919178 -2.77556e-17)
(-1.66752 0.0924878 -0.0762)
(-1.66752 0.0924878 -2.77556e-17)
(-1.6672 0.0930693 -0.0762)
(-1.6672 0.0930693 -2.77556e-17)
(-1.6669 0.0936618 -0.0762)
(-1.6669 0.0936618 -2.77556e-17)
(-1.66662 0.0942644 -0.0762)
(-1.66662 0.0942644 -2.77556e-17)
(-1.66636 0.0948765 -0.0762)
(-1.66636 0.0948765 -2.77556e-17)
(-1.66612 0.0954973 -0.0762)
(-1.66612 0.0954973 -2.77556e-17)
(-1.6659 0.096126 -0.0762)
(-1.6659 0.096126 -2.77556e-17)
(-1.66571 0.0967619 -0.0762)
(-1.66571 0.0967619 -2.77556e-17)
(-1.66554 0.0974041 -0.0762)
(-1.66554 0.0974041 -2.77556e-17)
(-1.66539 0.098052 -0.0762)
(-1.66539 0.098052 -2.77556e-17)
(-1.66526 0.0987048 -0.0762)
(-1.66526 0.0987048 -2.77556e-17)
(-1.66516 0.0993615 -0.0762)
(-1.66516 0.0993615 -2.77556e-17)
(-1.66507 0.100021 -0.0762)
(-1.66507 0.100021 -2.77556e-17)
(-1.66502 0.100684 -0.0762)
(-1.66502 0.100684 -2.77556e-17)
(-1.66498 0.101348 -0.0762)
(-1.66498 0.101348 -2.77556e-17)
(-1.66497 0.102013 -0.0762)
(-1.66497 0.102013 -2.77556e-17)
(-1.66498 0.102678 -0.0762)
(-1.68863 0.0835286 -0.0762)
(-1.68927 0.0837007 -2.77556e-17)
(-1.68927 0.0837007 -0.0762)
(-1.68991 0.0838951 -2.77556e-17)
(-1.68991 0.0838951 -0.0762)
(-1.69053 0.0841116 -2.77556e-17)
(-1.69053 0.0841116 -0.0762)
(-1.69116 0.0843499 -2.77556e-17)
(-1.69116 0.0843499 -0.0762)
(-1.69177 0.0846097 -2.77556e-17)
(-1.69177 0.0846097 -0.0762)
(-1.69237 0.0848907 -2.77556e-17)
(-1.69237 0.0848907 -0.0762)
(-1.69296 0.0851926 -2.77556e-17)
(-1.69296 0.0851926 -0.0762)
(-1.69354 0.085515 -2.77556e-17)
(-1.69354 0.085515 -0.0762)
(-1.69412 0.0858574 -2.77556e-17)
(-1.69412 0.0858574 -0.0762)
(-1.69467 0.0862196 -2.77556e-17)
(-1.69467 0.0862196 -0.0762)
(-1.69522 0.086601 -2.77556e-17)
(-1.69522 0.086601 -0.0762)
(-1.69575 0.0870011 -2.77556e-17)
(-1.69575 0.0870011 -0.0762)
(-1.69626 0.0874196 -2.77556e-17)
(-1.69626 0.0874196 -0.0762)
(-1.69677 0.0878558 -2.77556e-17)
(-1.69677 0.0878558 -0.0762)
(-1.69725 0.0883093 -2.77556e-17)
(-1.69725 0.0883093 -0.0762)
(-1.69772 0.0887795 -2.77556e-17)
(-1.69772 0.0887795 -0.0762)
(-1.69818 0.0892658 -2.77556e-17)
(-1.69818 0.0892658 -0.0762)
(-1.69861 0.0897676 -2.77556e-17)
(-1.69861 0.0897676 -0.0762)
(-1.69903 0.0902844 -2.77556e-17)
(-1.69903 0.0902844 -0.0762)
(-1.69943 0.0908154 -2.77556e-17)
(-1.69943 0.0908154 -0.0762)
(-1.69981 0.0913601 -2.77556e-17)
(-1.69981 0.0913601 -0.0762)
(-1.70018 0.0919178 -2.77556e-17)
(-1.70018 0.0919178 -0.0762)
(-1.70052 0.0924878 -2.77556e-17)
(-1.70052 0.0924878 -0.0762)
(-1.70084 0.0930693 -2.77556e-17)
(-1.70084 0.0930693 -0.0762)
(-1.70114 0.0936618 -2.77556e-17)
(-1.70114 0.0936618 -0.0762)
(-1.70142 0.0942644 -2.77556e-17)
(-1.70142 0.0942644 -0.0762)
(-1.70168 0.0948765 -2.77556e-17)
(-1.70168 0.0948765 -0.0762)
(-1.70192 0.0954973 -2.77556e-17)
(-1.70192 0.0954973 -0.0762)
(-1.70214 0.096126 -2.77556e-17)
(-1.70214 0.096126 -0.0762)
(-1.70233 0.0967619 -2.77556e-17)
(-1.70233 0.0967619 -0.0762)
(-1.7025 0.0974041 -2.77556e-17)
(-1.7025 0.0974041 -0.0762)
(-1.70265 0.098052 -2.77556e-17)
(-1.70265 0.098052 -0.0762)
(-1.70278 0.0987048 -2.77556e-17)
(-1.70278 0.0987048 -0.0762)
(-1.70289 0.0993615 -2.77556e-17)
(-1.70289 0.0993615 -0.0762)
(-1.70297 0.100021 -2.77556e-17)
(-1.70297 0.100021 -0.0762)
(-1.70302 0.100684 -2.77556e-17)
(-1.70302 0.100684 -0.0762)
(-1.70306 0.101348 -2.77556e-17)
(-1.70306 0.101348 -0.0762)
(-1.70307 0.102013 -2.77556e-17)
(-1.70307 0.102013 -0.0762)
(-1.70306 0.102678 -2.77556e-17)
(-1.70306 0.102678 -0.0762)
(-1.70302 0.103342 -2.77556e-17)
(-1.70302 0.103342 -0.0762)
(-1.70297 0.104004 -2.77556e-17)
(-1.70297 0.104004 -0.0762)
(-1.70289 0.104664 -2.77556e-17)
(-1.70289 0.104664 -0.0762)
(-1.70278 0.105321 -2.77556e-17)
(-1.70278 0.105321 -0.0762)
(-1.70265 0.105973 -2.77556e-17)
(-1.70265 0.105973 -0.0762)
(-1.7025 0.106621 -2.77556e-17)
(-1.7025 0.106621 -0.0762)
(-1.70233 0.107264 -2.77556e-17)
(-1.70233 0.107264 -0.0762)