/*--------------------------------*- C++ -*----------------------------------*\
| =========                 |                                                 |
| \\      /  F ield         | OpenFOAM: The Open Source CFD Toolbox           |
|  \\    /   O peration     | Version:  v2106                                 |
|   \\  /    A nd           | Website:  www.openfoam.com                      |
|    \\/     M anipulation  |                                                 |
\*---------------------------------------------------------------------------*/
FoamFile
{
    version     2.0;
    format      ascii;
    arch        "LSB;label=32;scalar=64";
    note        "written 2023-09-14T17:29:05";
    class       featureEdgeMesh;
    location    "";
    object      GTSrefinement_borders1.eMesh;
}
// * * * * * * * * * * * * * * * * * * * * * * * * * * * * * * * * * * * * * //


// points:

249
(
(-2.47648 -0.133425 0.228476)
(-2.4764 -0.133425 0.233005)
(-2.4764 0.133425 0.233005)
(-2.47648 0.133425 0.228476)
(-2.47616 -0.133425 0.23754)
(-2.47616 0.133425 0.23754)
(-2.47577 -0.133425 0.242086)
(-2.47577 0.133425 0.242086)
(-2.47521 -0.133425 0.246647)
(-2.47521 0.133425 0.246647)
(-2.47448 -0.133425 0.251231)
(-2.47448 0.133425 0.251231)
(-2.47358 -0.133425 0.255841)
(-2.47358 0.133425 0.255841)
(-2.47251 -0.133425 0.260484)
(-2.47251 0.133425 0.260484)
(-2.47126 -0.133425 0.265165)
(-2.47126 0.133425 0.265165)
(-2.46981 -0.133425 0.26989)
(-2.46981 0.133425 0.26989)
(-2.46817 -0.133425 0.274663)
(-2.46817 0.133425 0.274663)
(-2.46632 -0.133425 0.279491)
(-2.46632 0.133425 0.279491)
(-2.46424 -0.133425 0.284379)
(-2.46424 0.133425 0.284379)
(-2.46193 -0.133425 0.289333)
(-2.46193 0.133425 0.289333)
(-2.45937 -0.133425 0.294356)
(-2.45937 0.133425 0.294356)
(-2.45654 -0.133425 0.299455)
(-2.45654 0.133425 0.299455)
(-2.45343 -0.133425 0.304635)
(-2.45343 0.133425 0.304635)
(-2.45001 -0.133425 0.3099)
(-2.45001 0.133425 0.3099)
(-2.44626 -0.133425 0.315253)
(-2.44626 0.133425 0.315253)
(-2.44215 -0.133425 0.3207)
(-2.44215 0.133425 0.3207)
(-2.43766 -0.133425 0.326242)
(-2.43766 0.133425 0.326242)
(-2.43276 -0.133425 0.331881)
(-2.43276 0.133425 0.331881)
(-2.42741 -0.133425 0.337619)
(-2.42741 0.133425 0.337619)
(-2.42157 -0.133425 0.343454)
(-2.42157 0.133425 0.343454)
(-2.41521 -0.133425 0.349385)
(-2.41521 0.133425 0.349385)
(-2.40828 -0.133425 0.355407)
(-2.40828 0.133425 0.355407)
(-2.40074 -0.133425 0.361513)
(-2.40074 0.133425 0.361513)
(-2.39253 -0.133425 0.367692)
(-2.39253 0.133425 0.367692)
(-2.38362 -0.133425 0.373932)
(-2.38362 0.133425 0.373932)
(-2.37394 -0.133425 0.380214)
(-2.37394 0.133425 0.380214)
(-2.36345 -0.133425 0.386515)
(-2.36345 0.133425 0.386515)
(-2.35209 -0.133425 0.392808)
(-2.35209 0.133425 0.392808)
(-2.33982 -0.133425 0.399058)
(-2.33982 0.133425 0.399058)
(-2.32659 -0.133425 0.405225)
(-2.32659 0.133425 0.405225)
(-2.31237 -0.133425 0.411261)
(-2.31237 0.133425 0.411261)
(-2.29712 -0.133425 0.417112)
(-2.29712 0.133425 0.417112)
(-2.28083 -0.133425 0.422717)
(-2.28083 0.133425 0.422717)
(-2.26351 -0.133425 0.428009)
(-2.26351 0.133425 0.428009)
(-2.24562 -0.133425 0.432809)
(-2.24562 0.133425 0.432809)
(-2.22732 -0.133425 0.437063)
(-2.22732 0.133425 0.437063)
(-2.20868 -0.133425 0.44076)
(-2.20868 0.133425 0.44076)
(-2.18973 -0.133425 0.443889)
(-2.18973 0.133425 0.443889)
(-2.17053 -0.133425 0.446443)
(-2.17053 0.133425 0.446443)
(-2.15113 -0.133425 0.448415)
(-2.15113 0.133425 0.448415)
(-2.13158 -0.133425 0.449799)
(-2.13158 0.133425 0.449799)
(-2.11193 -0.133425 0.450592)
(-2.11193 0.133425 0.450592)
(-2.09547 -0.133425 0.4508)
(-2.09547 0.133425 0.4508)
(-2.47648 -0.133425 0.0382143)
(-2.47648 0.133425 0.0382143)
(-2.43827 0.161925 0)
(0 0.161925 0)
(-2.43827 -0.161925 0)
(0 -0.161925 0)
(0 0.161925 0.4508)
(0 -0.161925 0.4508)
(-1.82878 0.161925 0.4508)
(-2.09547 0.161925 0.4223)
(-2.44679 0.161925 0.000962358)
(-2.44798 0.161925 0.00125534)
(-2.44798 0.161925 0.228476)
(-2.12235 0.161925 0.421721)
(-2.11104 0.161925 0.422106)
(-2.09971 0.161925 0.422286)
(-2.44425 0.161925 0.255905)
(-2.44326 0.161925 0.259342)
(-2.44214 0.161925 0.26279)
(-2.44126 0.161925 0.265261)
(-2.37282 0.161925 0.346756)
(-2.36649 0.161925 0.351106)
(-2.44316 0.161925 0.000315133)
(-2.44438 0.161925 0.000492014)
(-2.44559 0.161925 0.00070783)
(-2.43949 0.161925 1.97213e-05)
(-2.44072 0.161925 7.88647e-05)
(-2.44194 0.161925 0.000177369)
(-2.15605 0.161925 0.41934)
(-2.14486 0.161925 0.420337)
(-2.13363 0.161925 0.421131)
(-2.44653 0.161925 0.245634)
(-2.44589 0.161925 0.249054)
(-2.44513 0.161925 0.252477)
(-2.39044 0.161925 0.333175)
(-2.3848 0.161925 0.337789)
(-2.37893 0.161925 0.342317)
(-2.18929 0.161925 0.415128)
(-2.17827 0.161925 0.416735)
(-2.16719 0.161925 0.418139)
(-2.44775 0.161925 0.235364)
(-2.44745 0.161925 0.238793)
(-2.44705 0.161925 0.242215)
(-2.43671 0.161925 0.276014)
(-2.43486 0.161925 0.279728)
(-2.43839 0.161925 0.272368)
(-2.44792 0.161925 0.231927)
(-2.22187 0.161925 0.409083)
(-2.21109 0.161925 0.411303)
(-2.20023 0.161925 0.413317)
(-2.39584 0.161925 0.328474)
(-2.4399 0.161925 0.268786)
(-2.41818 0.161925 0.305063)
(-2.41457 0.161925 0.309413)
(-2.41063 0.161925 0.313858)
(-2.43036 0.161925 0.287742)
(-2.4277 0.161925 0.29197)
(-2.43282 0.161925 0.283513)
(-2.42484 0.161925 0.296199)
(-2.42178 0.161925 0.30043)
(-2.40594 0.161925 0.318816)
(-2.40101 0.161925 0.323688)
(-2.28187 0.161925 0.392291)
(-2.2725 0.161925 0.395456)
(-2.26296 0.161925 0.398459)
(-2.25363 0.161925 0.40119)
(-2.24315 0.161925 0.404028)
(-2.23256 0.161925 0.406659)
(-2.30891 0.161925 0.381842)
(-2.30008 0.161925 0.385483)
(-2.29107 0.161925 0.388966)
(-2.33423 0.161925 0.369989)
(-2.32598 0.161925 0.374095)
(-2.31754 0.161925 0.378046)
(-2.35771 0.161925 0.356744)
(-2.3501 0.161925 0.361314)
(-2.34227 0.161925 0.365729)
(-2.36511 0.161925 0.352017)
(-1.82878 -0.161925 0.4508)
(-2.44679 -0.161925 0.000962358)
(-2.44559 -0.161925 0.00070783)
(-2.44798 -0.161925 0.228476)
(-2.44798 -0.161925 0.00125534)
(-2.44438 -0.161925 0.000492014)
(-2.44316 -0.161925 0.000315133)
(-2.44194 -0.161925 0.000177369)
(-2.09547 -0.161925 0.4223)
(-2.10632 -0.161925 0.422206)
(-2.25363 -0.161925 0.40119)
(-2.26203 -0.161925 0.398739)
(-2.27032 -0.161925 0.396161)
(-2.2785 -0.161925 0.393456)
(-2.11712 -0.161925 0.421925)
(-2.12786 -0.161925 0.421458)
(-2.13855 -0.161925 0.420809)
(-2.43949 -0.161925 1.97213e-05)
(-2.44072 -0.161925 7.88647e-05)
(-2.28656 -0.161925 0.390624)
(-2.2945 -0.161925 0.387666)
(-2.44096 -0.161925 0.266074)
(-2.44126 -0.161925 0.265261)
(-2.14918 -0.161925 0.419977)
(-2.15975 -0.161925 0.418965)
(-2.17025 -0.161925 0.417772)
(-2.4424 -0.161925 0.262008)
(-2.44343 -0.161925 0.258774)
(-2.44435 -0.161925 0.255554)
(-2.1807 -0.161925 0.4164)
(-2.19107 -0.161925 0.414847)
(-2.20138 -0.161925 0.413114)
(-2.44516 -0.161925 0.252349)
(-2.44586 -0.161925 0.249155)
(-2.44647 -0.161925 0.24597)
(-2.21161 -0.161925 0.411201)
(-2.22177 -0.161925 0.409105)
(-2.23185 -0.161925 0.406826)
(-2.31002 -0.161925 0.381365)
(-2.3176 -0.161925 0.378022)
(-2.32504 -0.161925 0.374548)
(-2.41818 -0.161925 0.305063)
(-2.421 -0.161925 0.301466)
(-2.42365 -0.161925 0.297882)
(-2.42615 -0.161925 0.294311)
(-2.24185 -0.161925 0.404362)
(-2.25177 -0.161925 0.40171)
(-2.41663 -0.161925 0.306971)
(-2.36511 -0.161925 0.352017)
(-2.37062 -0.161925 0.348298)
(-2.44697 -0.161925 0.242791)
(-2.44737 -0.161925 0.239616)
(-2.44767 -0.161925 0.236443)
(-2.44787 -0.161925 0.233269)
(-2.44797 -0.161925 0.230091)
(-2.42849 -0.161925 0.290752)
(-2.43068 -0.161925 0.287204)
(-2.43273 -0.161925 0.283667)
(-2.33236 -0.161925 0.370942)
(-2.33954 -0.161925 0.367202)
(-2.34659 -0.161925 0.363326)
(-2.37598 -0.161925 0.344493)
(-2.38119 -0.161925 0.340602)
(-2.38625 -0.161925 0.336624)
(-2.35349 -0.161925 0.359311)
(-2.36026 -0.161925 0.355154)
(-2.43465 -0.161925 0.280138)
(-2.43642 -0.161925 0.276616)
(-2.43806 -0.161925 0.273099)
(-2.39117 -0.161925 0.332558)
(-2.39592 -0.161925 0.328403)
(-2.40052 -0.161925 0.324158)
(-2.30232 -0.161925 0.38458)
(-2.43957 -0.161925 0.269586)
(-2.40489 -0.161925 0.319887)
(-2.40902 -0.161925 0.315598)
(-2.41293 -0.161925 0.311293)
)


// edges:

249
(
(0 1)
(2 3)
(1 4)
(5 2)
(4 6)
(7 5)
(6 8)
(9 7)
(8 10)
(11 9)
(10 12)
(13 11)
(12 14)
(15 13)
(14 16)
(17 15)
(16 18)
(19 17)
(18 20)
(21 19)
(20 22)
(23 21)
(22 24)
(25 23)
(24 26)
(27 25)
(26 28)
(29 27)
(28 30)
(31 29)
(30 32)
(33 31)
(32 34)
(35 33)
(34 36)
(37 35)
(36 38)
(39 37)
(38 40)
(41 39)
(40 42)
(43 41)
(42 44)
(45 43)
(44 46)
(47 45)
(46 48)
(49 47)
(48 50)
(51 49)
(50 52)
(53 51)
(52 54)
(55 53)
(54 56)
(57 55)
(56 58)
(59 57)
(58 60)
(61 59)
(60 62)
(63 61)
(62 64)
(65 63)
(64 66)
(67 65)
(66 68)
(69 67)
(68 70)
(71 69)
(70 72)
(73 71)
(72 74)
(75 73)
(74 76)
(77 75)
(76 78)
(79 77)
(78 80)
(81 79)
(80 82)
(83 81)
(82 84)
(85 83)
(84 86)
(87 85)
(86 88)
(89 87)
(88 90)
(91 89)
(90 92)
(93 91)
(94 0)
(95 94)
(3 95)
(98 96)
(97 99)
(97 100)
(100 101)
(101 99)
(103 102)
(104 105)
(105 106)
(107 108)
(108 109)
(109 103)
(110 111)
(111 112)
(112 113)
(114 115)
(116 117)
(117 118)
(118 104)
(119 120)
(120 121)
(121 116)
(122 123)
(123 124)
(124 107)
(125 126)
(126 127)
(127 110)
(128 129)
(129 130)
(130 114)
(131 132)
(132 133)
(133 122)
(134 135)
(135 136)
(136 125)
(137 138)
(139 137)
(106 140)
(140 134)
(141 142)
(142 143)
(143 131)
(144 128)
(113 145)
(145 139)
(146 147)
(147 148)
(149 150)
(151 149)
(150 152)
(138 151)
(152 153)
(153 146)
(148 154)
(154 155)
(155 144)
(156 157)
(157 158)
(158 159)
(159 160)
(160 161)
(161 141)
(162 163)
(163 164)
(164 156)
(165 166)
(166 167)
(167 162)
(168 169)
(169 170)
(170 165)
(96 119)
(115 171)
(171 168)
(102 93)
(92 172)
(173 174)
(175 176)
(176 173)
(174 177)
(177 178)
(178 179)
(180 181)
(182 183)
(183 184)
(184 185)
(181 186)
(186 187)
(187 188)
(172 180)
(189 98)
(190 189)
(179 190)
(185 191)
(191 192)
(193 194)
(188 195)
(195 196)
(196 197)
(194 198)
(198 199)
(199 200)
(197 201)
(201 202)
(202 203)
(200 204)
(204 205)
(205 206)
(203 207)
(207 208)
(208 209)
(210 211)
(211 212)
(213 214)
(214 215)
(215 216)
(209 217)
(217 218)
(218 182)
(219 213)
(220 221)
(206 222)
(222 223)
(223 224)
(224 225)
(225 226)
(226 175)
(216 227)
(227 228)
(228 229)
(212 230)
(230 231)
(231 232)
(221 233)
(233 234)
(234 235)
(232 236)
(236 237)
(237 220)
(229 238)
(238 239)
(239 240)
(235 241)
(241 242)
(242 243)
(192 244)
(244 210)
(245 193)
(240 245)
(243 246)
(246 247)
(247 248)
(248 219)
)

// * * * * * * * * * * * * * * * * * * * * * * * * * * * * * * * * * * * * * //
