/*--------------------------------*- C++ -*----------------------------------*\
| =========                 |                                                 |
| \\      /  F ield         | OpenFOAM: The Open Source CFD Toolbox           |
|  \\    /   O peration     | Version:  v2106                                 |
|   \\  /    A nd           | Website:  www.openfoam.com                      |
|    \\/     M anipulation  |                                                 |
\*---------------------------------------------------------------------------*/
FoamFile
{
    version     2.0;
    format      ascii;
    arch        "LSB;label=32;scalar=64";
    note        "written 2023-09-14T16:53:54";
    class       featureEdgeMesh;
    location    "";
    object      test2.eMesh;
}
// * * * * * * * * * * * * * * * * * * * * * * * * * * * * * * * * * * * * * //


// points:
8((-2.43827 0.161925 0) (0 0.161925 0) (-2.43827 -0.161925 0) (0 -0.161925 0) (0 0.161925 0.4508) (0 -0.161925 0.4508) (-1.82878 0.161925 0.4508) (-1.82878 -0.161925 0.4508))

// edges:
8((0 1) (1 3) (3 2) (1 4) (4 5) (5 3) (6 4) (7 5))
// * * * * * * * * * * * * * * * * * * * * * * * * * * * * * * * * * * * * * //
