/*--------------------------------*- C++ -*----------------------------------*\
| =========                 |                                                 |
| \\      /  F ield         | OpenFOAM: The Open Source CFD Toolbox           |
|  \\    /   O peration     | Version:  v2106                                 |
|   \\  /    A nd           | Website:  www.openfoam.com                      |
|    \\/     M anipulation  |                                                 |
\*---------------------------------------------------------------------------*/
FoamFile
{
    version     2.0;
    format      ascii;
    arch        "LSB;label=32;scalar=64";
    note        "written 2023-09-26T10:46:17";
    class       featureEdgeMesh;
    location    "";
    object      frontBottomBorder.eMesh;
}
// * * * * * * * * * * * * * * * * * * * * * * * * * * * * * * * * * * * * * //


// points:

219
(
(-2.43827 0.161925 0)
(-2.46223 0.158107 0.00844811)
(-2.4618 0.158354 0.0081017)
(-2.45773 0.160206 0.00532769)
(-2.45737 0.160333 0.00511983)
(-2.44865 -0.161917 0.0014367)
(-2.44871 0.161916 0.00145385)
(-2.44798 -0.161925 0.00125534)
(-2.44898 -0.161908 0.00153133)
(-2.44951 0.161884 0.0016923)
(-2.44898 0.161908 0.00153135)
(-2.45009 -0.161847 0.00187569)
(-2.45111 0.161753 0.00222239)
(-2.45096 0.161769 0.00216988)
(-2.44937 -0.161891 0.00164865)
(-2.44997 -0.161856 0.00183601)
(-2.45031 0.161829 0.00194842)
(-2.45081 -0.161784 0.00211809)
(-2.45096 -0.161769 0.00216987)
(-2.45134 0.161727 0.00230469)
(-2.45134 -0.161727 0.00230467)
(-2.4519 0.161654 0.00251444)
(-2.45153 -0.161703 0.00237619)
(-2.45195 -0.161648 0.00253303)
(-2.45225 -0.161603 0.00265036)
(-2.45195 0.161648 0.00253286)
(-2.45258 -0.161551 0.00278274)
(-2.45258 0.161551 0.00278268)
(-2.45269 0.161534 0.00282488)
(-2.45293 -0.161492 0.00292525)
(-2.45297 -0.161485 0.002941)
(-2.45293 0.161492 0.00292548)
(-2.45369 -0.161348 0.00324856)
(-2.45347 0.161392 0.00315405)
(-2.45381 -0.161323 0.0033039)
(-2.45391 -0.161302 0.00334726)
(-2.45391 0.161302 0.00334735)
(-2.45381 0.161323 0.003304)
(-2.4544 -0.161192 0.00357357)
(-2.45488 -0.161078 0.00379847)
(-2.45425 0.161227 0.00350235)
(-2.45488 0.161078 0.00379841)
(-2.45512 -0.161017 0.00391655)
(-2.45584 -0.160821 0.00427864)
(-2.45502 -0.161042 0.00386761)
(-2.45621 -0.160712 0.00447334)
(-2.45621 0.160712 0.00447337)
(-2.45584 0.160821 0.00427873)
(-2.4558 0.160832 0.00425821)
(-2.45502 0.161041 0.00387024)
(-2.45655 -0.160606 0.00465893)
(-2.45679 -0.16053 0.00478844)
(-2.45655 0.160606 0.00465893)
(-2.45679 0.16053 0.00478879)
(-2.45733 0.160349 0.00509366)
(-2.4569 -0.160493 0.00485197)
(-2.45737 -0.160333 0.00512009)
(-2.45767 -0.160226 0.00529478)
(-2.4592 -0.159625 0.00624194)
(-2.45957 -0.159461 0.00649156)
(-2.45773 -0.160206 0.00532725)
(-2.45844 -0.159937 0.00575794)
(-2.45811 0.160065 0.00555515)
(-2.45852 -0.159906 0.00580689)
(-2.45852 0.159906 0.00580727)
(-2.45866 -0.159849 0.00589521)
(-2.45957 0.159461 0.00649159)
(-2.45897 0.159721 0.0060947)
(-2.45866 0.159849 0.00589543)
(-2.45964 0.159433 0.00653361)
(-2.45964 -0.159433 0.00653367)
(-2.45995 -0.15929 0.00674729)
(-2.46047 -0.15904 0.00711597)
(-2.4607 -0.158931 0.00727457)
(-2.45982 0.159349 0.00665901)
(-2.46047 0.15904 0.00711599)
(-2.46149 0.158522 0.00786392)
(-2.46136 0.158589 0.00776829)
(-2.46073 0.158915 0.00729848)
(-2.46073 -0.158915 0.00729837)
(-2.46066 0.158949 0.00724857)
(-2.46136 -0.158589 0.00776808)
(-2.46144 -0.158549 0.00782438)
(-2.46179 -0.158354 0.0081016)
(-2.46217 -0.158143 0.00839738)
(-2.4623 0.158065 0.00850565)
(-2.46223 -0.158107 0.00844804)
(-2.46283 0.15775 0.00894114)
(-2.46283 -0.157751 0.00894065)
(-2.46289 -0.157712 0.00899425)
(-2.46361 -0.157255 0.00961573)
(-2.46384 -0.157106 0.00981633)
(-2.46384 0.157106 0.00981623)
(-2.46361 0.157255 0.00961573)
(-2.46308 -0.157594 0.00915554)
(-2.46311 0.15758 0.00917438)
(-2.46308 0.157594 0.009155)
(-2.46392 -0.157052 0.00988984)
(-2.46449 -0.156657 0.0104168)
(-2.46473 -0.156481 0.0106495)
(-2.46481 -0.156423 0.0107261)
(-2.46481 0.156423 0.0107262)
(-2.46473 0.156481 0.0106496)
(-2.46441 0.156712 0.0103435)
(-2.46392 0.157052 0.00988967)
(-2.46576 0.155702 0.0116693)
(-2.46553 0.155882 0.0114351)
(-2.46527 -0.156085 0.0111705)
(-2.46553 -0.155882 0.0114349)
(-2.46521 0.15613 0.0111112)
(-2.46705 0.154603 0.0130804)
(-2.46678 0.154845 0.0127727)
(-2.46576 -0.155702 0.0116693)
(-2.46603 -0.155485 0.0119508)
(-2.466 0.155508 0.0119205)
(-2.4663 -0.155256 0.0122454)
(-2.4663 0.155256 0.0122455)
(-2.46667 -0.154945 0.0126444)
(-2.46667 0.154945 0.0126445)
(-2.46677 -0.154856 0.0127582)
(-2.46705 -0.154604 0.0130801)
(-2.46749 -0.154199 0.0135933)
(-2.46754 0.154153 0.0136511)
(-2.46754 -0.154153 0.0136509)
(-2.46763 0.15407 0.0137562)
(-2.46778 -0.153925 0.0139385)
(-2.4682 -0.153512 0.0144567)
(-2.46838 -0.153327 0.014688)
(-2.46848 -0.153222 0.0148198)
(-2.46838 0.153328 0.0146876)
(-2.46778 0.153925 0.0139383)
(-2.46916 -0.152494 0.0157233)
(-2.46918 -0.15247 0.0157535)
(-2.46916 0.152495 0.0157227)
(-2.46888 -0.152797 0.0153489)
(-2.46848 0.153223 0.0148189)
(-2.46955 -0.152051 0.0162706)
(-2.46981 -0.151744 0.0166482)
(-2.46923 0.152416 0.0158197)
(-2.46981 0.151744 0.0166482)
(-2.4702 -0.151275 0.0172224)
(-2.47044 -0.15097 0.0175937)
(-2.46995 0.151583 0.0168454)
(-2.46995 -0.151582 0.0168461)
(-2.47067 0.150666 0.017964)
(-2.47044 0.15097 0.0175941)
(-2.46999 0.151538 0.0169003)
(-2.47067 -0.150666 0.0179646)
(-2.47082 -0.150468 0.0182049)
(-2.47071 0.150625 0.0180137)
(-2.47104 -0.150176 0.018559)
(-2.47104 0.150175 0.0185596)
(-2.47161 0.149361 0.0195433)
(-2.47143 0.14963 0.0192189)
(-2.47136 0.149722 0.0191076)
(-2.47136 -0.149722 0.0191076)
(-2.47143 -0.14963 0.0192189)
(-2.47161 -0.149361 0.0195433)
(-2.47201 0.148753 0.0202743)
(-2.47201 -0.148753 0.0202743)
(-2.47208 0.148632 0.020419)
(-2.47208 -0.148643 0.0204062)
(-2.47215 0.148527 0.0205449)
(-2.47215 -0.148527 0.0205449)
(-2.47261 0.147759 0.021463)
(-2.47261 -0.147759 0.0214629)
(-2.47315 0.146803 0.0226007)
(-2.47271 0.147589 0.0216665)
(-2.47266 0.147675 0.0215641)
(-2.4727 -0.147619 0.0216305)
(-2.47315 -0.146804 0.0226)
(-2.47318 0.146743 0.0226725)
(-2.47318 -0.146744 0.0226718)
(-2.47336 0.146394 0.0230868)
(-2.4736 0.145917 0.0236513)
(-2.47327 -0.146566 0.0228825)
(-2.4736 -0.145918 0.023651)
(-2.4737 0.145707 0.0239004)
(-2.4737 -0.145707 0.0238997)
(-2.47395 0.145174 0.0245289)
(-2.47402 0.145016 0.0247152)
(-2.47418 -0.144652 0.0251451)
(-2.47429 -0.144377 0.0254683)
(-2.47441 -0.144101 0.0257933)
(-2.47461 0.143578 0.0264064)
(-2.47447 0.143932 0.0259918)
(-2.4738 -0.145485 0.0241618)
(-2.47402 -0.145016 0.0247157)
(-2.47418 0.144651 0.0251455)
(-2.47441 0.144101 0.0257932)
(-2.47474 -0.143241 0.0268019)
(-2.47476 -0.143172 0.0268828)
(-2.475 0.14249 0.0276815)
(-2.47494 0.142667 0.0274744)
(-2.47461 -0.143579 0.0264063)
(-2.47476 0.143171 0.0268839)
(-2.475 -0.14249 0.0276819)
(-2.47509 -0.142232 0.0279843)
(-2.47514 -0.142079 0.0281624)
(-2.47535 0.141383 0.0289758)
(-2.47535 -0.141388 0.0289703)
(-2.47538 -0.14128 0.0290959)
(-2.47535 0.141388 0.0289694)
(-2.47509 0.142231 0.0279849)
(-2.47549 -0.140891 0.0295495)
(-2.44798 0.161925 0.00125534)
(-2.44751 0.161925 0.00113513)
(-2.44751 -0.161925 0.00113513)
(-2.44621 0.161925 0.000835074)
(-2.44621 -0.161925 0.000835074)
(-2.4449 0.161925 0.000580561)
(-2.4449 -0.161925 0.000580561)
(-2.44358 -0.161925 0.000371899)
(-2.44226 0.161925 0.000209342)
(-2.44226 -0.161925 0.000209342)
(-2.44093 0.161925 9.30881e-05)
(-2.44093 -0.161925 9.30881e-05)
(-2.4396 0.161925 2.32791e-05)
(-2.4396 -0.161925 2.32791e-05)
)


// edges:

172
(
(1 2)
(3 4)
(7 5)
(9 10)
(12 13)
(8 14)
(14 15)
(13 16)
(11 17)
(18 20)
(21 19)
(20 22)
(22 23)
(24 26)
(27 25)
(26 29)
(31 28)
(30 32)
(33 31)
(32 34)
(36 37)
(35 38)
(38 39)
(40 36)
(41 40)
(42 43)
(44 42)
(43 45)
(46 47)
(48 49)
(45 50)
(50 51)
(52 46)
(53 52)
(54 53)
(55 56)
(56 57)
(58 59)
(57 60)
(60 61)
(62 3)
(61 63)
(64 62)
(65 58)
(66 67)
(67 68)
(70 71)
(71 72)
(72 73)
(74 69)
(75 74)
(76 77)
(77 78)
(73 79)
(78 80)
(79 81)
(2 76)
(82 83)
(83 84)
(85 1)
(87 85)
(86 88)
(88 89)
(90 91)
(92 93)
(94 90)
(93 95)
(89 94)
(96 87)
(91 97)
(97 98)
(98 99)
(99 100)
(102 103)
(103 104)
(104 92)
(105 106)
(100 107)
(107 108)
(109 101)
(106 109)
(110 111)
(108 112)
(112 113)
(114 105)
(113 115)
(116 114)
(115 117)
(118 116)
(119 120)
(120 121)
(122 110)
(124 122)
(123 125)
(125 126)
(127 128)
(126 127)
(129 130)
(128 134)
(134 131)
(133 135)
(132 136)
(136 137)
(139 138)
(140 141)
(142 139)
(137 143)
(143 140)
(144 145)
(145 146)
(141 147)
(147 148)
(148 150)
(151 149)
(152 153)
(154 151)
(150 155)
(153 154)
(155 156)
(156 157)
(158 152)
(157 159)
(160 158)
(159 161)
(162 160)
(164 162)
(163 165)
(166 167)
(168 164)
(169 170)
(173 171)
(174 173)
(172 175)
(175 176)
(177 174)
(176 178)
(179 177)
(181 182)
(182 183)
(184 185)
(178 186)
(186 187)
(188 180)
(187 181)
(189 188)
(185 189)
(190 191)
(192 193)
(183 194)
(194 190)
(195 184)
(193 195)
(191 196)
(196 197)
(197 198)
(199 200)
(200 201)
(198 200)
(202 203)
(203 192)
(201 204)
(6 205)
(206 208)
(209 207)
(208 210)
(211 209)
(213 214)
(214 212)
(216 214)
(215 217)
(218 216)
(217 0)
)

// * * * * * * * * * * * * * * * * * * * * * * * * * * * * * * * * * * * * * //
