/*--------------------------------*- C++ -*----------------------------------*\
| =========                 |                                                 |
| \\      /  F ield         | OpenFOAM: The Open Source CFD Toolbox           |
|  \\    /   O peration     | Version:  v2106                                 |
|   \\  /    A nd           | Website:  www.openfoam.com                      |
|    \\/     M anipulation  |                                                 |
\*---------------------------------------------------------------------------*/
FoamFile
{
    version     2.0;
    format      ascii;
    arch        "LSB;label=32;scalar=64";
    note        "written 2023-08-22T20:48:16";
    class       featureEdgeMesh;
    location    "";
    object      GTSedges3.eMesh;
}
// * * * * * * * * * * * * * * * * * * * * * * * * * * * * * * * * * * * * * //


// points:

1716
(
(-1.66846 0.0910196 -2.77556e-17)
(-1.66896 0.0903468 -2.77556e-17)
(-1.66846 0.0910196 -0.0762)
(-1.66799 0.0917135 -0.0762)
(-1.66799 0.0917135 -2.77556e-17)
(-1.66756 0.0924274 -0.0762)
(-1.66756 0.0924274 -2.77556e-17)
(-1.66715 0.0931598 -0.0762)
(-1.66715 0.0931598 -2.77556e-17)
(-1.66678 0.0939092 -0.0762)
(-1.66678 0.0939092 -2.77556e-17)
(-1.66644 0.0946743 -0.0762)
(-1.66644 0.0946743 -2.77556e-17)
(-1.66613 0.0954536 -0.0762)
(-1.66613 0.0954536 -2.77556e-17)
(-1.66586 0.0962455 -0.0762)
(-1.66586 0.0962455 -2.77556e-17)
(-1.66563 0.0970486 -0.0762)
(-1.66563 0.0970486 -2.77556e-17)
(-1.66543 0.0978612 -0.0762)
(-1.66543 0.0978612 -2.77556e-17)
(-1.66526 0.0986819 -0.0762)
(-1.66526 0.0986819 -2.77556e-17)
(-1.66514 0.0995089 -0.0762)
(-1.66514 0.0995089 -2.77556e-17)
(-1.66504 0.100341 -0.0762)
(-1.66504 0.100341 -2.77556e-17)
(-1.66499 0.101176 -0.0762)
(-1.66499 0.101176 -2.77556e-17)
(-1.66497 0.102013 -0.0762)
(-1.66497 0.102013 -2.77556e-17)
(-1.66499 0.102849 -0.0762)
(-1.66896 0.0903468 -0.0762)
(-1.66949 0.0896965 -2.77556e-17)
(-1.66949 0.0896965 -0.0762)
(-1.67004 0.0890701 -2.77556e-17)
(-1.67004 0.0890701 -0.0762)
(-1.67062 0.0884686 -2.77556e-17)
(-1.67062 0.0884686 -0.0762)
(-1.67123 0.0878932 -2.77556e-17)
(-1.67123 0.0878932 -0.0762)
(-1.67186 0.0873452 -2.77556e-17)
(-1.67186 0.0873452 -0.0762)
(-1.67252 0.0868254 -2.77556e-17)
(-1.67252 0.0868254 -0.0762)
(-1.6732 0.0863349 -2.77556e-17)
(-1.6732 0.0863349 -0.0762)
(-1.6739 0.0858747 -2.77556e-17)
(-1.6739 0.0858747 -0.0762)
(-1.67462 0.0854457 -2.77556e-17)
(-1.67462 0.0854457 -0.0762)
(-1.67535 0.0850486 -2.77556e-17)
(-1.67535 0.0850486 -0.0762)
(-1.67611 0.0846843 -2.77556e-17)
(-1.67611 0.0846843 -0.0762)
(-1.67687 0.0843534 -2.77556e-17)
(-1.67687 0.0843534 -0.0762)
(-1.67766 0.0840566 -2.77556e-17)
(-1.67766 0.0840566 -0.0762)
(-1.67845 0.0837945 -2.77556e-17)
(-1.67845 0.0837945 -0.0762)
(-1.67926 0.0835675 -2.77556e-17)
(-1.67926 0.0835675 -0.0762)
(-1.68007 0.0833761 -2.77556e-17)
(-1.68007 0.0833761 -0.0762)
(-1.68089 0.0832208 -2.77556e-17)
(-1.68089 0.0832208 -0.0762)
(-1.68172 0.0831017 -2.77556e-17)
(-1.68172 0.0831017 -0.0762)
(-1.68256 0.083019 -2.77556e-17)
(-1.68256 0.083019 -0.0762)
(-1.68339 0.0829731 -2.77556e-17)
(-1.68339 0.0829731 -0.0762)
(-1.68423 0.0829639 -2.77556e-17)
(-1.68423 0.0829639 -0.0762)
(-1.68507 0.0829915 -2.77556e-17)
(-1.68507 0.0829915 -0.0762)
(-1.6859 0.0830558 -2.77556e-17)
(-1.6859 0.0830558 -0.0762)
(-1.68673 0.0831567 -2.77556e-17)
(-1.68673 0.0831567 -0.0762)
(-1.68756 0.0832939 -2.77556e-17)
(-1.68756 0.0832939 -0.0762)
(-1.68837 0.0834673 -2.77556e-17)
(-1.68837 0.0834673 -0.0762)
(-1.68919 0.0836766 -2.77556e-17)
(-1.68919 0.0836766 -0.0762)
(-1.68999 0.0839212 -2.77556e-17)
(-1.68999 0.0839212 -0.0762)
(-1.69078 0.0842007 -2.77556e-17)
(-1.69078 0.0842007 -0.0762)
(-1.69155 0.0845146 -2.77556e-17)
(-1.69155 0.0845146 -0.0762)
(-1.69231 0.0848623 -2.77556e-17)
(-1.69231 0.0848623 -0.0762)
(-1.69306 0.0852431 -2.77556e-17)
(-1.69306 0.0852431 -0.0762)
(-1.69379 0.0856562 -2.77556e-17)
(-1.69379 0.0856562 -0.0762)
(-1.69449 0.086101 -2.77556e-17)
(-1.69449 0.086101 -0.0762)
(-1.69518 0.0865764 -2.77556e-17)
(-1.69518 0.0865764 -0.0762)
(-1.69585 0.0870817 -2.77556e-17)
(-1.69585 0.0870817 -0.0762)
(-1.6965 0.0876157 -2.77556e-17)
(-1.6965 0.0876157 -0.0762)
(-1.69711 0.0881776 -2.77556e-17)
(-1.69711 0.0881776 -0.0762)
(-1.69771 0.0887661 -2.77556e-17)
(-1.69771 0.0887661 -0.0762)
(-1.69828 0.0893803 -2.77556e-17)
(-1.69828 0.0893803 -0.0762)
(-1.69882 0.0900188 -2.77556e-17)
(-1.69882 0.0900188 -0.0762)
(-1.69933 0.0906804 -2.77556e-17)
(-1.69933 0.0906804 -0.0762)
(-1.69982 0.091364 -2.77556e-17)
(-1.69982 0.091364 -0.0762)
(-1.70027 0.0920681 -2.77556e-17)
(-1.70027 0.0920681 -0.0762)
(-1.70069 0.0927914 -2.77556e-17)
(-1.70069 0.0927914 -0.0762)
(-1.70108 0.0935325 -2.77556e-17)
(-1.70108 0.0935325 -0.0762)
(-1.70143 0.0942899 -2.77556e-17)
(-1.70143 0.0942899 -0.0762)
(-1.70176 0.0950623 -2.77556e-17)
(-1.70176 0.0950623 -0.0762)
(-1.70204 0.0958481 -2.77556e-17)
(-1.70204 0.0958481 -0.0762)
(-1.7023 0.0966457 -2.77556e-17)
(-1.7023 0.0966457 -0.0762)
(-1.70252 0.0974538 -2.77556e-17)
(-1.70252 0.0974538 -0.0762)
(-1.7027 0.0982706 -2.77556e-17)
(-1.7027 0.0982706 -0.0762)
(-1.70284 0.0990947 -2.77556e-17)
(-1.70284 0.0990947 -0.0762)
(-1.70296 0.0999244 -2.77556e-17)
(-1.70296 0.0999244 -0.0762)
(-1.70303 0.100758 -2.77556e-17)
(-1.70303 0.100758 -0.0762)
(-1.70307 0.101594 -2.77556e-17)
(-1.70307 0.101594 -0.0762)
(-1.70307 0.102431 -2.77556e-17)
(-1.70307 0.102431 -0.0762)
(-1.70303 0.103267 -2.77556e-17)
(-1.70303 0.103267 -0.0762)
(-1.70296 0.104101 -2.77556e-17)
(-1.70296 0.104101 -0.0762)
(-1.70284 0.104931 -2.77556e-17)
(-1.70284 0.104931 -0.0762)
(-1.7027 0.105755 -2.77556e-17)
(-1.7027 0.105755 -0.0762)
(-1.70252 0.106572 -2.77556e-17)
(-1.70252 0.106572 -0.0762)
(-1.7023 0.10738 -2.77556e-17)
(-1.7023 0.10738 -0.0762)
(-1.70204 0.108177 -2.77556e-17)
(-1.70204 0.108177 -0.0762)
(-1.70176 0.108963 -2.77556e-17)
(-1.70176 0.108963 -0.0762)
(-1.70143 0.109736 -2.77556e-17)
(-1.70143 0.109736 -0.0762)
(-1.70108 0.110493 -2.77556e-17)
(-1.70108 0.110493 -0.0762)
(-1.70069 0.111234 -2.77556e-17)
(-1.70069 0.111234 -0.0762)
(-1.70027 0.111957 -2.77556e-17)
(-1.70027 0.111957 -0.0762)
(-1.69982 0.112662 -2.77556e-17)
(-1.69982 0.112662 -0.0762)
(-1.69933 0.113345 -2.77556e-17)
(-1.69933 0.113345 -0.0762)
(-1.69882 0.114007 -2.77556e-17)
(-1.69882 0.114007 -0.0762)
(-1.69828 0.114645 -2.77556e-17)
(-1.69828 0.114645 -0.0762)
(-1.69771 0.115259 -2.77556e-17)
(-1.69771 0.115259 -0.0762)
(-1.69711 0.115848 -2.77556e-17)
(-1.69711 0.115848 -0.0762)
(-1.6965 0.11641 -2.77556e-17)
(-1.6965 0.11641 -0.0762)
(-1.69585 0.116944 -2.77556e-17)
(-1.69585 0.116944 -0.0762)
(-1.69518 0.117449 -2.77556e-17)
(-1.69518 0.117449 -0.0762)
(-1.69449 0.117924 -2.77556e-17)
(-1.69449 0.117924 -0.0762)
(-1.69379 0.118369 -2.77556e-17)
(-1.69379 0.118369 -0.0762)
(-1.69306 0.118782 -2.77556e-17)
(-1.69306 0.118782 -0.0762)
(-1.69231 0.119163 -2.77556e-17)
(-1.69231 0.119163 -0.0762)
(-1.69155 0.119511 -2.77556e-17)
(-1.69155 0.119511 -0.0762)
(-1.69078 0.119825 -2.77556e-17)
(-1.69078 0.119825 -0.0762)
(-1.68999 0.120104 -2.77556e-17)
(-1.68999 0.120104 -0.0762)
(-1.68919 0.120349 -2.77556e-17)
(-1.68919 0.120349 -0.0762)
(-1.68837 0.120558 -2.77556e-17)
(-1.68837 0.120558 -0.0762)
(-1.68756 0.120732 -2.77556e-17)
(-1.68756 0.120732 -0.0762)
(-1.68673 0.120869 -2.77556e-17)
(-1.68673 0.120869 -0.0762)
(-1.6859 0.12097 -2.77556e-17)
(-1.6859 0.12097 -0.0762)
(-1.68507 0.121034 -2.77556e-17)
(-1.68507 0.121034 -0.0762)
(-1.68423 0.121062 -2.77556e-17)
(-1.68423 0.121062 -0.0762)
(-1.68339 0.121052 -2.77556e-17)
(-1.68339 0.121052 -0.0762)
(-1.68256 0.121007 -2.77556e-17)
(-1.68256 0.121007 -0.0762)
(-1.68172 0.120924 -2.77556e-17)
(-1.68172 0.120924 -0.0762)
(-1.68089 0.120805 -2.77556e-17)
(-1.68089 0.120805 -0.0762)
(-1.68007 0.120649 -2.77556e-17)
(-1.68007 0.120649 -0.0762)
(-1.67926 0.120458 -2.77556e-17)
(-1.67926 0.120458 -0.0762)
(-1.67845 0.120231 -2.77556e-17)
(-1.67845 0.120231 -0.0762)
(-1.67766 0.119969 -2.77556e-17)
(-1.67766 0.119969 -0.0762)
(-1.67687 0.119672 -2.77556e-17)
(-1.67687 0.119672 -0.0762)
(-1.67611 0.119341 -2.77556e-17)
(-1.67611 0.119341 -0.0762)
(-1.67535 0.118977 -2.77556e-17)
(-1.67535 0.118977 -0.0762)
(-1.67462 0.11858 -2.77556e-17)
(-1.67462 0.11858 -0.0762)
(-1.6739 0.118151 -2.77556e-17)
(-1.6739 0.118151 -0.0762)
(-1.6732 0.117691 -2.77556e-17)
(-1.6732 0.117691 -0.0762)
(-1.67252 0.1172 -2.77556e-17)
(-1.67252 0.1172 -0.0762)
(-1.67186 0.11668 -2.77556e-17)
(-1.67186 0.11668 -0.0762)
(-1.67123 0.116132 -2.77556e-17)
(-1.67123 0.116132 -0.0762)
(-1.67062 0.115557 -2.77556e-17)
(-1.67062 0.115557 -0.0762)
(-1.67004 0.114955 -2.77556e-17)
(-1.67004 0.114955 -0.0762)
(-1.66949 0.114329 -2.77556e-17)
(-1.66949 0.114329 -0.0762)
(-1.66896 0.113679 -2.77556e-17)
(-1.66896 0.113679 -0.0762)
(-1.66846 0.113006 -2.77556e-17)
(-1.66846 0.113006 -0.0762)
(-1.66799 0.112312 -2.77556e-17)
(-1.66799 0.112312 -0.0762)
(-1.66756 0.111598 -2.77556e-17)
(-1.66756 0.111598 -0.0762)
(-1.66715 0.110866 -2.77556e-17)
(-1.66715 0.110866 -0.0762)
(-1.66678 0.110116 -2.77556e-17)
(-1.66678 0.110116 -0.0762)
(-1.66644 0.109351 -2.77556e-17)
(-1.66644 0.109351 -0.0762)
(-1.66613 0.108572 -2.77556e-17)
(-1.66613 0.108572 -0.0762)
(-1.66586 0.10778 -2.77556e-17)
(-1.66586 0.10778 -0.0762)
(-1.66563 0.106977 -2.77556e-17)
(-1.66563 0.106977 -0.0762)
(-1.66543 0.106164 -2.77556e-17)
(-1.66543 0.106164 -0.0762)
(-1.66526 0.105344 -2.77556e-17)
(-1.66526 0.105344 -0.0762)
(-1.66514 0.104517 -2.77556e-17)
(-1.66514 0.104517 -0.0762)
(-1.66504 0.103685 -2.77556e-17)
(-1.66504 0.103685 -0.0762)
(-1.66499 0.102849 -2.77556e-17)
(-1.66497 0.102013 0)
(-1.66499 0.102849 0)
(-1.66499 0.101176 0)
(-1.66526 0.0986819 0)
(-1.66514 0.0995089 0)
(-1.66504 0.100341 0)
(-1.66586 0.0962455 0)
(-1.66563 0.0970486 0)
(-1.66543 0.0978612 0)
(-1.66678 0.0939092 0)
(-1.66644 0.0946743 0)
(-1.66613 0.0954536 0)
(-1.66799 0.0917135 0)
(-1.66756 0.0924274 0)
(-1.66715 0.0931598 0)
(-1.66949 0.0896965 0)
(-1.66896 0.0903468 0)
(-1.66846 0.0910196 0)
(-1.67123 0.0878932 0)
(-1.67062 0.0884686 0)
(-1.67004 0.0890701 0)
(-1.6732 0.0863349 0)
(-1.67252 0.0868254 0)
(-1.67186 0.0873452 0)
(-1.67535 0.0850486 0)
(-1.67462 0.0854457 0)
(-1.6739 0.0858747 0)
(-1.67766 0.0840566 0)
(-1.67687 0.0843534 0)
(-1.67611 0.0846843 0)
(-1.68007 0.0833761 0)
(-1.67926 0.0835675 0)
(-1.67845 0.0837945 0)
(-1.68256 0.083019 0)
(-1.68172 0.0831017 0)
(-1.68089 0.0832208 0)
(-1.68507 0.0829915 0)
(-1.68423 0.0829639 0)
(-1.68339 0.0829731 0)
(-1.68756 0.0832939 0)
(-1.68673 0.0831567 0)
(-1.6859 0.0830558 0)
(-1.68999 0.0839212 0)
(-1.68919 0.0836766 0)
(-1.68837 0.0834673 0)
(-1.69231 0.0848623 0)
(-1.69155 0.0845146 0)
(-1.69078 0.0842007 0)
(-1.69449 0.086101 0)
(-1.69379 0.0856562 0)
(-1.69306 0.0852431 0)
(-1.6965 0.0876157 0)
(-1.69585 0.0870817 0)
(-1.69518 0.0865764 0)
(-1.69828 0.0893803 0)
(-1.69771 0.0887661 0)
(-1.69711 0.0881776 0)
(-1.69982 0.091364 0)
(-1.69933 0.0906804 0)
(-1.69882 0.0900188 0)
(-1.70108 0.0935325 0)
(-1.70069 0.0927914 0)
(-1.70027 0.0920681 0)
(-1.70204 0.0958481 0)
(-1.70176 0.0950623 0)
(-1.70143 0.0942899 0)
(-1.7027 0.0982706 0)
(-1.70252 0.0974538 0)
(-1.7023 0.0966457 0)
(-1.70303 0.100758 0)
(-1.70296 0.0999244 0)
(-1.70284 0.0990947 0)
(-1.70303 0.103267 0)
(-1.70307 0.102431 0)
(-1.70307 0.101594 0)
(-1.7027 0.105755 0)
(-1.70284 0.104931 0)
(-1.70296 0.104101 0)
(-1.70204 0.108177 0)
(-1.7023 0.10738 0)
(-1.70252 0.106572 0)
(-1.70108 0.110493 0)
(-1.70143 0.109736 0)
(-1.70176 0.108963 0)
(-1.69982 0.112662 0)
(-1.70027 0.111957 0)
(-1.70069 0.111234 0)
(-1.69828 0.114645 0)
(-1.69882 0.114007 0)
(-1.69933 0.113345 0)
(-1.6965 0.11641 0)
(-1.69711 0.115848 0)
(-1.69771 0.115259 0)
(-1.69449 0.117924 0)
(-1.69518 0.117449 0)
(-1.69585 0.116944 0)
(-1.69231 0.119163 0)
(-1.69306 0.118782 0)
(-1.69379 0.118369 0)
(-1.68999 0.120104 0)
(-1.69078 0.119825 0)
(-1.69155 0.119511 0)
(-1.68756 0.120732 0)
(-1.68837 0.120558 0)
(-1.68919 0.120349 0)
(-1.68507 0.121034 0)
(-1.6859 0.12097 0)
(-1.68673 0.120869 0)
(-1.68256 0.121007 0)
(-1.68339 0.121052 0)
(-1.68423 0.121062 0)
(-1.68007 0.120649 0)
(-1.68089 0.120805 0)
(-1.68172 0.120924 0)
(-1.67766 0.119969 0)
(-1.67845 0.120231 0)
(-1.67926 0.120458 0)
(-1.67535 0.118977 0)
(-1.67611 0.119341 0)
(-1.67687 0.119672 0)
(-1.6732 0.117691 0)
(-1.6739 0.118151 0)
(-1.67462 0.11858 0)
(-1.67123 0.116132 0)
(-1.67186 0.11668 0)
(-1.67252 0.1172 0)
(-1.66949 0.114329 0)
(-1.67004 0.114955 0)
(-1.67062 0.115557 0)
(-1.66799 0.112312 0)
(-1.66846 0.113006 0)
(-1.66896 0.113679 0)
(-1.66678 0.110116 0)
(-1.66715 0.110866 0)
(-1.66756 0.111598 0)
(-1.66586 0.10778 0)
(-1.66613 0.108572 0)
(-1.66644 0.109351 0)
(-1.66526 0.105344 0)
(-1.66543 0.106164 0)
(-1.66563 0.106977 0)
(-1.66504 0.103685 0)
(-1.66514 0.104517 0)
(-1.66846 -0.113006 -2.77556e-17)
(-1.66896 -0.113679 -2.77556e-17)
(-1.66846 -0.113006 -0.0762)
(-1.66799 -0.112312 -0.0762)
(-1.66799 -0.112312 -2.77556e-17)
(-1.66756 -0.111598 -0.0762)
(-1.66756 -0.111598 -2.77556e-17)
(-1.66715 -0.110866 -0.0762)
(-1.66715 -0.110866 -2.77556e-17)
(-1.66678 -0.110116 -0.0762)
(-1.66678 -0.110116 -2.77556e-17)
(-1.66644 -0.109351 -0.0762)
(-1.66644 -0.109351 -2.77556e-17)
(-1.66613 -0.108572 -0.0762)
(-1.66613 -0.108572 -2.77556e-17)
(-1.66586 -0.10778 -0.0762)
(-1.66586 -0.10778 -2.77556e-17)
(-1.66563 -0.106977 -0.0762)
(-1.66563 -0.106977 -2.77556e-17)
(-1.66543 -0.106164 -0.0762)
(-1.66543 -0.106164 -2.77556e-17)
(-1.66526 -0.105344 -0.0762)
(-1.66526 -0.105344 -2.77556e-17)
(-1.66514 -0.104517 -0.0762)
(-1.66514 -0.104517 -2.77556e-17)
(-1.66504 -0.103685 -0.0762)
(-1.66504 -0.103685 -2.77556e-17)
(-1.66499 -0.102849 -0.0762)
(-1.66499 -0.102849 -2.77556e-17)
(-1.66497 -0.102013 -0.0762)
(-1.66497 -0.102013 -2.77556e-17)
(-1.66499 -0.101176 -0.0762)
(-1.66896 -0.113679 -0.0762)
(-1.66949 -0.114329 -2.77556e-17)
(-1.66949 -0.114329 -0.0762)
(-1.67004 -0.114955 -2.77556e-17)
(-1.67004 -0.114955 -0.0762)
(-1.67062 -0.115557 -2.77556e-17)
(-1.67062 -0.115557 -0.0762)
(-1.67123 -0.116132 -2.77556e-17)
(-1.67123 -0.116132 -0.0762)
(-1.67186 -0.11668 -2.77556e-17)
(-1.67186 -0.11668 -0.0762)
(-1.67252 -0.1172 -2.77556e-17)
(-1.67252 -0.1172 -0.0762)
(-1.6732 -0.117691 -2.77556e-17)
(-1.6732 -0.117691 -0.0762)
(-1.6739 -0.118151 -2.77556e-17)
(-1.6739 -0.118151 -0.0762)
(-1.67462 -0.11858 -2.77556e-17)
(-1.67462 -0.11858 -0.0762)
(-1.67535 -0.118977 -2.77556e-17)
(-1.67535 -0.118977 -0.0762)
(-1.67611 -0.119341 -2.77556e-17)
(-1.67611 -0.119341 -0.0762)
(-1.67687 -0.119672 -2.77556e-17)
(-1.67687 -0.119672 -0.0762)
(-1.67766 -0.119969 -2.77556e-17)
(-1.67766 -0.119969 -0.0762)
(-1.67845 -0.120231 -2.77556e-17)
(-1.67845 -0.120231 -0.0762)
(-1.67926 -0.120458 -2.77556e-17)
(-1.67926 -0.120458 -0.0762)
(-1.68007 -0.120649 -2.77556e-17)
(-1.68007 -0.120649 -0.0762)
(-1.68089 -0.120805 -2.77556e-17)
(-1.68089 -0.120805 -0.0762)
(-1.68172 -0.120924 -2.77556e-17)
(-1.68172 -0.120924 -0.0762)
(-1.68256 -0.121007 -2.77556e-17)
(-1.68256 -0.121007 -0.0762)
(-1.68339 -0.121052 -2.77556e-17)
(-1.68339 -0.121052 -0.0762)
(-1.68423 -0.121062 -2.77556e-17)
(-1.68423 -0.121062 -0.0762)
(-1.68507 -0.121034 -2.77556e-17)
(-1.68507 -0.121034 -0.0762)
(-1.6859 -0.12097 -2.77556e-17)
(-1.6859 -0.12097 -0.0762)
(-1.68673 -0.120869 -2.77556e-17)
(-1.68673 -0.120869 -0.0762)
(-1.68756 -0.120732 -2.77556e-17)
(-1.68756 -0.120732 -0.0762)
(-1.68837 -0.120558 -2.77556e-17)
(-1.68837 -0.120558 -0.0762)
(-1.68919 -0.120349 -2.77556e-17)
(-1.68919 -0.120349 -0.0762)
(-1.68999 -0.120104 -2.77556e-17)
(-1.68999 -0.120104 -0.0762)
(-1.69078 -0.119825 -2.77556e-17)
(-1.69078 -0.119825 -0.0762)
(-1.69155 -0.119511 -2.77556e-17)
(-1.69155 -0.119511 -0.0762)
(-1.69231 -0.119163 -2.77556e-17)
(-1.69231 -0.119163 -0.0762)
(-1.69306 -0.118782 -2.77556e-17)
(-1.69306 -0.118782 -0.0762)
(-1.69379 -0.118369 -2.77556e-17)
(-1.69379 -0.118369 -0.0762)
(-1.69449 -0.117924 -2.77556e-17)
(-1.69449 -0.117924 -0.0762)
(-1.69518 -0.117449 -2.77556e-17)
(-1.69518 -0.117449 -0.0762)
(-1.69585 -0.116944 -2.77556e-17)
(-1.69585 -0.116944 -0.0762)
(-1.6965 -0.11641 -2.77556e-17)
(-1.6965 -0.11641 -0.0762)
(-1.69711 -0.115848 -2.77556e-17)
(-1.69711 -0.115848 -0.0762)
(-1.69771 -0.115259 -2.77556e-17)
(-1.69771 -0.115259 -0.0762)
(-1.69828 -0.114645 -2.77556e-17)
(-1.69828 -0.114645 -0.0762)
(-1.69882 -0.114007 -2.77556e-17)
(-1.69882 -0.114007 -0.0762)
(-1.69933 -0.113345 -2.77556e-17)
(-1.69933 -0.113345 -0.0762)
(-1.69982 -0.112662 -2.77556e-17)
(-1.69982 -0.112662 -0.0762)
(-1.70027 -0.111957 -2.77556e-17)
(-1.70027 -0.111957 -0.0762)
(-1.70069 -0.111234 -2.77556e-17)
(-1.70069 -0.111234 -0.0762)
(-1.70108 -0.110493 -2.77556e-17)
(-1.70108 -0.110493 -0.0762)
(-1.70143 -0.109736 -2.77556e-17)
(-1.70143 -0.109736 -0.0762)
(-1.70176 -0.108963 -2.77556e-17)
(-1.70176 -0.108963 -0.0762)
(-1.70204 -0.108177 -2.77556e-17)
(-1.70204 -0.108177 -0.0762)
(-1.7023 -0.10738 -2.77556e-17)
(-1.7023 -0.10738 -0.0762)
(-1.70252 -0.106572 -2.77556e-17)
(-1.70252 -0.106572 -0.0762)
(-1.7027 -0.105755 -2.77556e-17)
(-1.7027 -0.105755 -0.0762)
(-1.70284 -0.104931 -2.77556e-17)
(-1.70284 -0.104931 -0.0762)
(-1.70296 -0.104101 -2.77556e-17)
(-1.70296 -0.104101 -0.0762)
(-1.70303 -0.103267 -2.77556e-17)
(-1.70303 -0.103267 -0.0762)
(-1.70307 -0.102431 -2.77556e-17)
(-1.70307 -0.102431 -0.0762)
(-1.70307 -0.101594 -2.77556e-17)
(-1.70307 -0.101594 -0.0762)
(-1.70303 -0.100758 -2.77556e-17)
(-1.70303 -0.100758 -0.0762)
(-1.70296 -0.0999244 -2.77556e-17)
(-1.70296 -0.0999244 -0.0762)
(-1.70284 -0.0990947 -2.77556e-17)
(-1.70284 -0.0990947 -0.0762)
(-1.7027 -0.0982706 -2.77556e-17)
(-1.7027 -0.0982706 -0.0762)
(-1.70252 -0.0974538 -2.77556e-17)
(-1.70252 -0.0974538 -0.0762)
(-1.7023 -0.0966457 -2.77556e-17)
(-1.7023 -0.0966457 -0.0762)
(-1.70204 -0.0958481 -2.77556e-17)
(-1.70204 -0.0958481 -0.0762)
(-1.70176 -0.0950623 -2.77556e-17)
(-1.70176 -0.0950623 -0.0762)
(-1.70143 -0.0942899 -2.77556e-17)
(-1.70143 -0.0942899 -0.0762)
(-1.70108 -0.0935325 -2.77556e-17)
(-1.70108 -0.0935325 -0.0762)
(-1.70069 -0.0927914 -2.77556e-17)
(-1.70069 -0.0927914 -0.0762)
(-1.70027 -0.0920681 -2.77556e-17)
(-1.70027 -0.0920681 -0.0762)
(-1.69982 -0.091364 -2.77556e-17)
(-1.69982 -0.091364 -0.0762)
(-1.69933 -0.0906804 -2.77556e-17)
(-1.69933 -0.0906804 -0.0762)
(-1.69882 -0.0900188 -2.77556e-17)
(-1.69882 -0.0900188 -0.0762)
(-1.69828 -0.0893803 -2.77556e-17)
(-1.69828 -0.0893803 -0.0762)
(-1.69771 -0.0887661 -2.77556e-17)
(-1.69771 -0.0887661 -0.0762)
(-1.69711 -0.0881776 -2.77556e-17)
(-1.69711 -0.0881776 -0.0762)
(-1.6965 -0.0876157 -2.77556e-17)
(-1.6965 -0.0876157 -0.0762)
(-1.69585 -0.0870817 -2.77556e-17)
(-1.69585 -0.0870817 -0.0762)
(-1.69518 -0.0865764 -2.77556e-17)
(-1.69518 -0.0865764 -0.0762)
(-1.69449 -0.086101 -2.77556e-17)
(-1.69449 -0.086101 -0.0762)
(-1.69379 -0.0856562 -2.77556e-17)
(-1.69379 -0.0856562 -0.0762)
(-1.69306 -0.0852431 -2.77556e-17)
(-1.69306 -0.0852431 -0.0762)
(-1.69231 -0.0848623 -2.77556e-17)
(-1.69231 -0.0848623 -0.0762)
(-1.69155 -0.0845146 -2.77556e-17)
(-1.69155 -0.0845146 -0.0762)
(-1.69078 -0.0842007 -2.77556e-17)
(-1.69078 -0.0842007 -0.0762)
(-1.68999 -0.0839212 -2.77556e-17)
(-1.68999 -0.0839212 -0.0762)
(-1.68919 -0.0836766 -2.77556e-17)
(-1.68919 -0.0836766 -0.0762)
(-1.68837 -0.0834673 -2.77556e-17)
(-1.68837 -0.0834673 -0.0762)
(-1.68756 -0.0832939 -2.77556e-17)
(-1.68756 -0.0832939 -0.0762)
(-1.68673 -0.0831567 -2.77556e-17)
(-1.68673 -0.0831567 -0.0762)
(-1.6859 -0.0830558 -2.77556e-17)
(-1.6859 -0.0830558 -0.0762)
(-1.68507 -0.0829915 -2.77556e-17)
(-1.68507 -0.0829915 -0.0762)
(-1.68423 -0.0829639 -2.77556e-17)
(-1.68423 -0.0829639 -0.0762)
(-1.68339 -0.0829731 -2.77556e-17)
(-1.68339 -0.0829731 -0.0762)
(-1.68256 -0.083019 -2.77556e-17)
(-1.68256 -0.083019 -0.0762)
(-1.68172 -0.0831017 -2.77556e-17)
(-1.68172 -0.0831017 -0.0762)
(-1.68089 -0.0832208 -2.77556e-17)
(-1.68089 -0.0832208 -0.0762)
(-1.68007 -0.0833761 -2.77556e-17)
(-1.68007 -0.0833761 -0.0762)
(-1.67926 -0.0835675 -2.77556e-17)
(-1.67926 -0.0835675 -0.0762)
(-1.67845 -0.0837945 -2.77556e-17)
(-1.67845 -0.0837945 -0.0762)
(-1.67766 -0.0840566 -2.77556e-17)
(-1.67766 -0.0840566 -0.0762)
(-1.67687 -0.0843534 -2.77556e-17)
(-1.67687 -0.0843534 -0.0762)
(-1.67611 -0.0846843 -2.77556e-17)
(-1.67611 -0.0846843 -0.0762)
(-1.67535 -0.0850486 -2.77556e-17)
(-1.67535 -0.0850486 -0.0762)
(-1.67462 -0.0854457 -2.77556e-17)
(-1.67462 -0.0854457 -0.0762)
(-1.6739 -0.0858747 -2.77556e-17)
(-1.6739 -0.0858747 -0.0762)
(-1.6732 -0.0863349 -2.77556e-17)
(-1.6732 -0.0863349 -0.0762)
(-1.67252 -0.0868254 -2.77556e-17)
(-1.67252 -0.0868254 -0.0762)
(-1.67186 -0.0873452 -2.77556e-17)
(-1.67186 -0.0873452 -0.0762)
(-1.67123 -0.0878932 -2.77556e-17)
(-1.67123 -0.0878932 -0.0762)
(-1.67062 -0.0884686 -2.77556e-17)
(-1.67062 -0.0884686 -0.0762)
(-1.67004 -0.0890701 -2.77556e-17)
(-1.67004 -0.0890701 -0.0762)
(-1.66949 -0.0896965 -2.77556e-17)
(-1.66949 -0.0896965 -0.0762)
(-1.66896 -0.0903468 -2.77556e-17)
(-1.66896 -0.0903468 -0.0762)
(-1.66846 -0.0910196 -2.77556e-17)
(-1.66846 -0.0910196 -0.0762)
(-1.66799 -0.0917135 -2.77556e-17)
(-1.66799 -0.0917135 -0.0762)
(-1.66756 -0.0924274 -2.77556e-17)
(-1.66756 -0.0924274 -0.0762)
(-1.66715 -0.0931598 -2.77556e-17)
(-1.66715 -0.0931598 -0.0762)
(-1.66678 -0.0939092 -2.77556e-17)
(-1.66678 -0.0939092 -0.0762)
(-1.66644 -0.0946743 -2.77556e-17)
(-1.66644 -0.0946743 -0.0762)
(-1.66613 -0.0954536 -2.77556e-17)
(-1.66613 -0.0954536 -0.0762)
(-1.66586 -0.0962455 -2.77556e-17)
(-1.66586 -0.0962455 -0.0762)
(-1.66563 -0.0970486 -2.77556e-17)
(-1.66563 -0.0970486 -0.0762)
(-1.66543 -0.0978612 -2.77556e-17)
(-1.66543 -0.0978612 -0.0762)
(-1.66526 -0.0986819 -2.77556e-17)
(-1.66526 -0.0986819 -0.0762)
(-1.66514 -0.0995089 -2.77556e-17)
(-1.66514 -0.0995089 -0.0762)
(-1.66504 -0.100341 -2.77556e-17)
(-1.66504 -0.100341 -0.0762)
(-1.66499 -0.101176 -2.77556e-17)
(-1.66497 -0.102013 0)
(-1.66499 -0.101176 0)
(-1.66499 -0.102849 0)
(-1.66526 -0.105344 0)
(-1.66514 -0.104517 0)
(-1.66504 -0.103685 0)
(-1.66586 -0.10778 0)
(-1.66563 -0.106977 0)
(-1.66543 -0.106164 0)
(-1.66678 -0.110116 0)
(-1.66644 -0.109351 0)
(-1.66613 -0.108572 0)
(-1.66799 -0.112312 0)
(-1.66756 -0.111598 0)
(-1.66715 -0.110866 0)
(-1.66949 -0.114329 0)
(-1.66896 -0.113679 0)
(-1.66846 -0.113006 0)
(-1.67123 -0.116132 0)
(-1.67062 -0.115557 0)
(-1.67004 -0.114955 0)
(-1.6732 -0.117691 0)
(-1.67252 -0.1172 0)
(-1.67186 -0.11668 0)
(-1.67535 -0.118977 0)
(-1.67462 -0.11858 0)
(-1.6739 -0.118151 0)
(-1.67766 -0.119969 0)
(-1.67687 -0.119672 0)
(-1.67611 -0.119341 0)
(-1.68007 -0.120649 0)
(-1.67926 -0.120458 0)
(-1.67845 -0.120231 0)
(-1.68256 -0.121007 0)
(-1.68172 -0.120924 0)
(-1.68089 -0.120805 0)
(-1.68507 -0.121034 0)
(-1.68423 -0.121062 0)
(-1.68339 -0.121052 0)
(-1.68756 -0.120732 0)
(-1.68673 -0.120869 0)
(-1.6859 -0.12097 0)
(-1.68999 -0.120104 0)
(-1.68919 -0.120349 0)
(-1.68837 -0.120558 0)
(-1.69231 -0.119163 0)
(-1.69155 -0.119511 0)
(-1.69078 -0.119825 0)
(-1.69449 -0.117924 0)
(-1.69379 -0.118369 0)
(-1.69306 -0.118782 0)
(-1.6965 -0.11641 0)
(-1.69585 -0.116944 0)
(-1.69518 -0.117449 0)
(-1.69828 -0.114645 0)
(-1.69771 -0.115259 0)
(-1.69711 -0.115848 0)
(-1.69982 -0.112662 0)
(-1.69933 -0.113345 0)
(-1.69882 -0.114007 0)
(-1.70108 -0.110493 0)
(-1.70069 -0.111234 0)
(-1.70027 -0.111957 0)
(-1.70204 -0.108177 0)
(-1.70176 -0.108963 0)
(-1.70143 -0.109736 0)
(-1.7027 -0.105755 0)
(-1.70252 -0.106572 0)
(-1.7023 -0.10738 0)
(-1.70303 -0.103267 0)
(-1.70296 -0.104101 0)
(-1.70284 -0.104931 0)
(-1.70303 -0.100758 0)
(-1.70307 -0.101594 0)
(-1.70307 -0.102431 0)
(-1.7027 -0.0982706 0)
(-1.70284 -0.0990947 0)
(-1.70296 -0.0999244 0)
(-1.70204 -0.0958481 0)
(-1.7023 -0.0966457 0)
(-1.70252 -0.0974538 0)
(-1.70108 -0.0935325 0)
(-1.70143 -0.0942899 0)
(-1.70176 -0.0950623 0)
(-1.69982 -0.091364 0)
(-1.70027 -0.0920681 0)
(-1.70069 -0.0927914 0)
(-1.69828 -0.0893803 0)
(-1.69882 -0.0900188 0)
(-1.69933 -0.0906804 0)
(-1.6965 -0.0876157 0)
(-1.69711 -0.0881776 0)
(-1.69771 -0.0887661 0)
(-1.69449 -0.086101 0)
(-1.69518 -0.0865764 0)
(-1.69585 -0.0870817 0)
(-1.69231 -0.0848623 0)
(-1.69306 -0.0852431 0)
(-1.69379 -0.0856562 0)
(-1.68999 -0.0839212 0)
(-1.69078 -0.0842007 0)
(-1.69155 -0.0845146 0)
(-1.68756 -0.0832939 0)
(-1.68837 -0.0834673 0)
(-1.68919 -0.0836766 0)
(-1.68507 -0.0829915 0)
(-1.6859 -0.0830558 0)
(-1.68673 -0.0831567 0)
(-1.68256 -0.083019 0)
(-1.68339 -0.0829731 0)
(-1.68423 -0.0829639 0)
(-1.68007 -0.0833761 0)
(-1.68089 -0.0832208 0)
(-1.68172 -0.0831017 0)
(-1.67766 -0.0840566 0)
(-1.67845 -0.0837945 0)
(-1.67926 -0.0835675 0)
(-1.67535 -0.0850486 0)
(-1.67611 -0.0846843 0)
(-1.67687 -0.0843534 0)
(-1.6732 -0.0863349 0)
(-1.6739 -0.0858747 0)
(-1.67462 -0.0854457 0)
(-1.67123 -0.0878932 0)
(-1.67186 -0.0873452 0)
(-1.67252 -0.0868254 0)
(-1.66949 -0.0896965 0)
(-1.67004 -0.0890701 0)
(-1.67062 -0.0884686 0)
(-1.66799 -0.0917135 0)
(-1.66846 -0.0910196 0)
(-1.66896 -0.0903468 0)
(-1.66678 -0.0939092 0)
(-1.66715 -0.0931598 0)
(-1.66756 -0.0924274 0)
(-1.66586 -0.0962455 0)
(-1.66613 -0.0954536 0)
(-1.66644 -0.0946743 0)
(-1.66526 -0.0986819 0)
(-1.66543 -0.0978612 0)
(-1.66563 -0.0970486 0)
(-1.66504 -0.100341 0)
(-1.66514 -0.0995089 0)
(-0.169036 0.0910196 -2.77556e-17)
(-0.169534 0.0903468 -2.77556e-17)
(-0.169036 0.0910196 -0.0762)
(-0.168569 0.0917135 -0.0762)
(-0.168569 0.0917135 -2.77556e-17)
(-0.168132 0.0924274 -0.0762)
(-0.168132 0.0924274 -2.77556e-17)
(-0.167727 0.0931598 -0.0762)
(-0.167727 0.0931598 -2.77556e-17)
(-0.167354 0.0939092 -0.0762)
(-0.167354 0.0939092 -2.77556e-17)
(-0.167015 0.0946743 -0.0762)
(-0.167015 0.0946743 -2.77556e-17)
(-0.166709 0.0954536 -0.0762)
(-0.166709 0.0954536 -2.77556e-17)
(-0.166439 0.0962455 -0.0762)
(-0.166439 0.0962455 -2.77556e-17)
(-0.166203 0.0970486 -0.0762)
(-0.166203 0.0970486 -2.77556e-17)
(-0.166002 0.0978612 -0.0762)
(-0.166002 0.0978612 -2.77556e-17)
(-0.165838 0.0986819 -0.0762)
(-0.165838 0.0986819 -2.77556e-17)
(-0.16571 0.0995089 -0.0762)
(-0.16571 0.0995089 -2.77556e-17)
(-0.165618 0.100341 -0.0762)
(-0.165618 0.100341 -2.77556e-17)
(-0.165563 0.101176 -0.0762)
(-0.165563 0.101176 -2.77556e-17)
(-0.165544 0.102013 -0.0762)
(-0.165544 0.102013 -2.77556e-17)
(-0.165563 0.102849 -0.0762)
(-0.169534 0.0903468 -0.0762)
(-0.170061 0.0896965 -2.77556e-17)
(-0.170061 0.0896965 -0.0762)
(-0.170616 0.0890701 -2.77556e-17)
(-0.170616 0.0890701 -0.0762)
(-0.171198 0.0884686 -2.77556e-17)
(-0.171198 0.0884686 -0.0762)
(-0.171806 0.0878932 -2.77556e-17)
(-0.171806 0.0878932 -0.0762)
(-0.172439 0.0873452 -2.77556e-17)
(-0.172439 0.0873452 -0.0762)
(-0.173095 0.0868254 -2.77556e-17)
(-0.173095 0.0868254 -0.0762)
(-0.173773 0.0863349 -2.77556e-17)
(-0.173773 0.0863349 -0.0762)
(-0.174472 0.0858747 -2.77556e-17)
(-0.174472 0.0858747 -0.0762)
(-0.175191 0.0854457 -2.77556e-17)
(-0.175191 0.0854457 -0.0762)
(-0.175927 0.0850486 -2.77556e-17)
(-0.175927 0.0850486 -0.0762)
(-0.176681 0.0846843 -2.77556e-17)
(-0.176681 0.0846843 -0.0762)
(-0.17745 0.0843534 -2.77556e-17)
(-0.17745 0.0843534 -0.0762)
(-0.178232 0.0840566 -2.77556e-17)
(-0.178232 0.0840566 -0.0762)
(-0.179027 0.0837945 -2.77556e-17)
(-0.179027 0.0837945 -0.0762)
(-0.179833 0.0835675 -2.77556e-17)
(-0.179833 0.0835675 -0.0762)
(-0.180647 0.0833761 -2.77556e-17)
(-0.180647 0.0833761 -0.0762)
(-0.18147 0.0832208 -2.77556e-17)
(-0.18147 0.0832208 -0.0762)
(-0.182298 0.0831017 -2.77556e-17)
(-0.182298 0.0831017 -0.0762)
(-0.183131 0.083019 -2.77556e-17)
(-0.183131 0.083019 -0.0762)
(-0.183967 0.0829731 -2.77556e-17)
(-0.183967 0.0829731 -0.0762)
(-0.184804 0.0829639 -2.77556e-17)
(-0.184804 0.0829639 -0.0762)
(-0.18564 0.0829915 -2.77556e-17)
(-0.18564 0.0829915 -0.0762)
(-0.186475 0.0830558 -2.77556e-17)
(-0.186475 0.0830558 -0.0762)
(-0.187306 0.0831567 -2.77556e-17)
(-0.187306 0.0831567 -0.0762)
(-0.188131 0.0832939 -2.77556e-17)
(-0.188131 0.0832939 -0.0762)
(-0.18895 0.0834673 -2.77556e-17)
(-0.18895 0.0834673 -0.0762)
(-0.18976 0.0836766 -2.77556e-17)
(-0.18976 0.0836766 -0.0762)
(-0.190561 0.0839212 -2.77556e-17)
(-0.190561 0.0839212 -0.0762)
(-0.19135 0.0842007 -2.77556e-17)
(-0.19135 0.0842007 -0.0762)
(-0.192126 0.0845146 -2.77556e-17)
(-0.192126 0.0845146 -0.0762)
(-0.192887 0.0848623 -2.77556e-17)
(-0.192887 0.0848623 -0.0762)
(-0.193632 0.0852431 -2.77556e-17)
(-0.193632 0.0852431 -0.0762)
(-0.19436 0.0856562 -2.77556e-17)
(-0.19436 0.0856562 -0.0762)
(-0.195069 0.086101 -2.77556e-17)
(-0.195069 0.086101 -0.0762)
(-0.195758 0.0865764 -2.77556e-17)
(-0.195758 0.0865764 -0.0762)
(-0.196425 0.0870817 -2.77556e-17)
(-0.196425 0.0870817 -0.0762)
(-0.19707 0.0876157 -2.77556e-17)
(-0.19707 0.0876157 -0.0762)
(-0.19769 0.0881776 -2.77556e-17)
(-0.19769 0.0881776 -0.0762)
(-0.198285 0.0887661 -2.77556e-17)
(-0.198285 0.0887661 -0.0762)
(-0.198854 0.0893803 -2.77556e-17)
(-0.198854 0.0893803 -0.0762)
(-0.199395 0.0900188 -2.77556e-17)
(-0.199395 0.0900188 -0.0762)
(-0.199907 0.0906804 -2.77556e-17)
(-0.199907 0.0906804 -0.0762)
(-0.20039 0.091364 -2.77556e-17)
(-0.20039 0.091364 -0.0762)
(-0.200843 0.0920681 -2.77556e-17)
(-0.200843 0.0920681 -0.0762)
(-0.201264 0.0927914 -2.77556e-17)
(-0.201264 0.0927914 -0.0762)
(-0.201653 0.0935325 -2.77556e-17)
(-0.201653 0.0935325 -0.0762)
(-0.202009 0.0942899 -2.77556e-17)
(-0.202009 0.0942899 -0.0762)
(-0.202331 0.0950623 -2.77556e-17)
(-0.202331 0.0950623 -0.0762)
(-0.202619 0.0958481 -2.77556e-17)
(-0.202619 0.0958481 -0.0762)
(-0.202873 0.0966457 -2.77556e-17)
(-0.202873 0.0966457 -0.0762)
(-0.203091 0.0974538 -2.77556e-17)
(-0.203091 0.0974538 -0.0762)
(-0.203273 0.0982706 -2.77556e-17)
(-0.203273 0.0982706 -0.0762)
(-0.20342 0.0990947 -2.77556e-17)
(-0.20342 0.0990947 -0.0762)
(-0.20353 0.0999244 -2.77556e-17)
(-0.20353 0.0999244 -0.0762)
(-0.203603 0.100758 -2.77556e-17)
(-0.203603 0.100758 -0.0762)
(-0.20364 0.101594 -2.77556e-17)
(-0.20364 0.101594 -0.0762)